####################################################################### 
# 
# This file contains crystal structure data downloaded from the 
# Cambridge Structural Database (CSD) hosted by the Cambridge 
# Crystallographic Data Centre (CCDC).
# 
# Full information about CCDC data access policies and citation 
# guidelines are available at http://www.ccdc.cam.ac.uk/access/V1 
# 
# Audit and citation data items may have been added by the CCDC. 
# Please retain this information to preserve the provenance of 
# this file and to allow appropriate attribution of the data. 
# 
#######################################################################

data_exp_2599
_audit_block_doi                 10.5517/ccdc.csd.cc1p2tm6
_database_code_depnum_ccdc_archive 'CCDC 1551848'
loop_
_citation_id
_citation_doi
_citation_year
1 10.1002/anie.201705426 2017
_audit_update_record             
;
2017-05-23 deposited with the CCDC.	2021-04-22 downloaded from the CCDC.
;
_audit_creation_date             2017-05-23
_audit_creation_method           
;
Olex2 1.2
(compiled 2017.03.28 svn.r3405 for OlexSys, GUI svn.r5337)
;
_shelx_SHELXL_version_number     2014/7
_chemical_name_common            ?
_chemical_name_systematic        
'Bis(tri-tertbutyl-cyclopentadienyl)dysprosium tetrakis(pentafluorophenyl)borate'
_chemical_formula_moiety         'C34 H58 Dy, B C24 F20'
_chemical_formula_sum            'C58 H58 B Dy F20'
_chemical_formula_weight         1308.35
_chemical_melting_point          ?
loop_
_atom_type_symbol
_atom_type_description
_atom_type_scat_dispersion_real
_atom_type_scat_dispersion_imag
_atom_type_scat_source
C C 0.0033 0.0016 'International Tables Vol C Tables 4.2.6.8 and 6.1.1.4'
H H 0.0000 0.0000 'International Tables Vol C Tables 4.2.6.8 and 6.1.1.4'
B B 0.0013 0.0007 'International Tables Vol C Tables 4.2.6.8 and 6.1.1.4'
Dy Dy -0.1892 4.4098 'International Tables Vol C Tables 4.2.6.8 and 6.1.1.4'
F F 0.0171 0.0103 'International Tables Vol C Tables 4.2.6.8 and 6.1.1.4'

_shelx_space_group_comment       
;
The symmetry employed for this shelxl refinement is uniquely defined
by the following loop, which should always be used as a source of
symmetry information in preference to the above space-group names.
They are only intended as comments.
;
_space_group_crystal_system      triclinic
_space_group_IT_number           2
_space_group_name_H-M_alt        'P -1'
_space_group_name_Hall           '-P 1'
loop_
_space_group_symop_operation_xyz
'x, y, z'
'-x, -y, -z'

_cell_length_a                   11.7138(4)
_cell_length_b                   12.5054(5)
_cell_length_c                   20.0304(17)
_cell_angle_alpha                82.986(5)
_cell_angle_beta                 89.896(4)
_cell_angle_gamma                79.610(3)
_cell_volume                     2863.8(3)
_cell_formula_units_Z            2
_cell_measurement_reflns_used    5436
_cell_measurement_temperature    149.9(4)
_cell_measurement_theta_max      27.1840
_cell_measurement_theta_min      3.6110
_shelx_estimated_absorpt_T_max   ?
_shelx_estimated_absorpt_T_min   ?
_exptl_absorpt_coefficient_mu    1.406
_exptl_absorpt_correction_T_max  1.00000
_exptl_absorpt_correction_T_min  0.69794
_exptl_absorpt_correction_type   multi-scan
_exptl_absorpt_process_details   
;
CrysAlisPro 1.171.39.27b (Rigaku Oxford Diffraction, 2015)
Empirical absorption correction using spherical harmonics,
 implemented in SCALE3 ABSPACK scaling algorithm.
;
_exptl_absorpt_special_details   ?
_exptl_crystal_colour            'light yellow'
_exptl_crystal_colour_lustre     .
_exptl_crystal_colour_modifier   light
_exptl_crystal_colour_primary    yellow
_exptl_crystal_density_diffrn    1.517
_exptl_crystal_density_meas      ?
_exptl_crystal_density_method    ?
_exptl_crystal_description       plate
_exptl_crystal_F_000             1314
_exptl_crystal_size_max          0.07
_exptl_crystal_size_mid          0.06
_exptl_crystal_size_min          0.01
_exptl_transmission_factor_max   ?
_exptl_transmission_factor_min   ?
_diffrn_reflns_av_R_equivalents  0.0576
_diffrn_reflns_av_unetI/netI     0.1132
_diffrn_reflns_Laue_measured_fraction_full 0.998
_diffrn_reflns_Laue_measured_fraction_max 0.998
_diffrn_reflns_limit_h_max       14
_diffrn_reflns_limit_h_min       -12
_diffrn_reflns_limit_k_max       15
_diffrn_reflns_limit_k_min       -15
_diffrn_reflns_limit_l_max       24
_diffrn_reflns_limit_l_min       -24
_diffrn_reflns_number            20947
_diffrn_reflns_point_group_measured_fraction_full 0.998
_diffrn_reflns_point_group_measured_fraction_max 0.998
_diffrn_reflns_theta_full        25.242
_diffrn_reflns_theta_max         26.000
_diffrn_reflns_theta_min         3.312
_diffrn_ambient_environment      N~2~
_diffrn_ambient_temperature      149.9(4)
_diffrn_detector                 'CCD plate'
_diffrn_detector_area_resol_mean 8.0714
_diffrn_detector_type            Eos
_diffrn_measured_fraction_theta_full 0.998
_diffrn_measured_fraction_theta_max 0.998
_diffrn_measurement_details      
;
List of Runs (angles in degrees, time in seconds):

  # Type    Start    End  Width  t~exp~   \w     \q     \k     \f   Frames
#--------------------------------------------------------------------------
  1  \w     -7.00  88.00   1.00   30.00    --   20.34  37.00 -30.00   95
  2  \w    -16.00  10.00   1.00   30.00    --  -18.93 -99.00-180.00   26
  3  \w     37.00  64.00   1.00   30.00    --   20.34 178.00-180.00   27
  4  \w     35.00  62.00   1.00   30.00    --   20.34 178.00 150.00   27
  5  \w    -52.00  48.00   1.00   30.00    --   20.34 -37.00 150.00  100
  6  \w    -14.00  64.00   1.00   30.00    --   20.34 -99.00  30.00   78
  7  \w    -19.00  17.00   1.00   30.00    --  -18.93 -99.00 -90.00   36
  8  \w     56.00  98.00   1.00   30.00    --   20.34-178.00-150.00   42
;
_diffrn_measurement_device       'four-circle diffractometer'
_diffrn_measurement_device_type  'SuperNova, Single source at offset/far, Eos'
_diffrn_measurement_method       '\w scans'
_diffrn_orient_matrix_type       
'CrysAlisPro convention (1999,Acta A55,543-557)'
_diffrn_orient_matrix_UB_11      0.0055355000
_diffrn_orient_matrix_UB_12      0.0261971000
_diffrn_orient_matrix_UB_13      -0.0330012000
_diffrn_orient_matrix_UB_21      0.0581442000
_diffrn_orient_matrix_UB_22      0.0036858000
_diffrn_orient_matrix_UB_23      0.0076795000
_diffrn_orient_matrix_UB_31      0.0194955000
_diffrn_orient_matrix_UB_32      -0.0517414000
_diffrn_orient_matrix_UB_33      -0.0111992000
_diffrn_radiation_monochromator  mirror
_diffrn_radiation_probe          x-ray
_diffrn_radiation_type           MoK\a
_diffrn_radiation_wavelength     0.71073
_diffrn_source                   'micro-focus sealed X-ray tube'
_diffrn_source_type              'SuperNova (Mo) X-ray Source'
_reflns_Friedel_coverage         0.000
_reflns_Friedel_fraction_full    .
_reflns_Friedel_fraction_max     .
_reflns_number_gt                8945
_reflns_number_total             11247
_reflns_odcompleteness_completeness 99.79
_reflns_odcompleteness_iscentric 1
_reflns_odcompleteness_theta     26.32
_reflns_special_details          
;
 Reflections were merged by SHELXL according to the crystal
 class for the calculation of statistics and refinement.
 
 Structure factors included contributions from the .fab file.
 
 _reflns_Friedel_fraction is defined as the number of unique
 Friedel pairs measured divided by the number that would be
 possible theoretically, ignoring centric projections and
 systematic absences.
;
_reflns_threshold_expression     'I > 2\s(I)'
_computing_cell_refinement       'CrysAlisPro 1.171.39.27b (Rigaku OD, 2015)'
_computing_data_collection       'CrysAlisPro 1.171.39.27b (Rigaku OD, 2015)'
_computing_data_reduction        'CrysAlisPro 1.171.39.27b (Rigaku OD, 2015)'
_computing_molecular_graphics    'Olex2 (Dolomanov et al., 2009)'
_computing_publication_material  'Olex2 (Dolomanov et al., 2009)'
_computing_structure_refinement  'ShelXL (Sheldrick, 2015)'
_computing_structure_solution    'ShelXT (Sheldrick, 2015)'
_refine_diff_density_max         2.371
_refine_diff_density_min         -1.911
_refine_diff_density_rms         0.140
_refine_ls_extinction_coef       .
_refine_ls_extinction_method     none
_refine_ls_goodness_of_fit_ref   1.103
_refine_ls_hydrogen_treatment    constr
_refine_ls_matrix_type           full
_refine_ls_number_parameters     739
_refine_ls_number_reflns         11247
_refine_ls_number_restraints     18
_refine_ls_R_factor_all          0.0971
_refine_ls_R_factor_gt           0.0751
_refine_ls_restrained_S_all      1.106
_refine_ls_shift/su_max          0.000
_refine_ls_shift/su_mean         0.000
_refine_ls_structure_factor_coef Fsqd
_refine_ls_weighting_details     
'w=1/[\s^2^(Fo^2^)+(0.0311P)^2^+8.4321P] where P=(Fo^2^+2Fc^2^)/3'
_refine_ls_weighting_scheme      calc
_refine_ls_wR_factor_gt          0.1316
_refine_ls_wR_factor_ref         0.1418
_refine_special_details          
', Electron density related to disordered DCM solvent removed using the Solvent Mask routine in Olex2'
_olex2_refinement_description    
;
1. Fixed Uiso
 At 1.2 times of:
  All C(H) groups
 At 1.5 times of:
  All C(H,H,H) groups
2. Uiso/Uaniso restraints and constraints
C23 \\sim C24: within 2A with sigma of 0.01 and sigma for terminal atoms of 0.01
C20 \\sim C27: within 2A with sigma of 0.01 and sigma for terminal atoms of 0.02
Uanis(C20) \\sim Ueq: with sigma of 0.005 and sigma for terminal atoms of 0.01
3.a Aromatic/amide H refined with riding coordinates:
 C2(H2), C5(H5), C19(H19), C22(H22)
3.b Idealised Me refined as rotating group:
 C7(H7A,H7B,H7C), C8(H8A,H8B,H8C), C9(H9A,H9B,H9C), C11(H11A,H11B,H11C),
 C12(H12A,H12B,H12C), C13(H13A,H13B,H13C), C15(H15A,H15B,H15C), C16(H16A,H16B,
 H16C), C17(H17A,H17B,H17C), C24(H24A,H24B,H24C), C25(H25A,H25B,H25C), C26(H26A,
 H26B,H26C), C28(H28A,H28B,H28C), C29(H29A,H29B,H29C), C30(H30A,H30B,H30C),
 C32(H32A,H32B,H32C), C33(H33A,H33B,H33C), C34(H34A,H34B,H34C)
;
_atom_sites_solution_hydrogens   geom
_atom_sites_solution_primary     dual
_atom_sites_solution_secondary   ?
loop_
_atom_site_label
_atom_site_type_symbol
_atom_site_fract_x
_atom_site_fract_y
_atom_site_fract_z
_atom_site_U_iso_or_equiv
_atom_site_adp_type
_atom_site_occupancy
_atom_site_site_symmetry_order
_atom_site_calc_flag
_atom_site_refinement_flags_posn
_atom_site_refinement_flags_adp
_atom_site_refinement_flags_occupancy
_atom_site_disorder_assembly
_atom_site_disorder_group
Dy1 Dy 0.12183(3) 0.31653(3) 0.28473(2) 0.02176(10) Uani 1 1 d . . . . .
C1 C -0.0668(5) 0.3023(5) 0.3582(4) 0.0236(16) Uani 1 1 d . . . . .
C2 C 0.0014(5) 0.1962(5) 0.3575(4) 0.0232(15) Uani 1 1 d . . . . .
H2 H 0.0405 0.1540 0.3948 0.028 Uiso 1 1 calc R . . . .
C3 C 0.0018(5) 0.1637(5) 0.2927(4) 0.0225(16) Uani 1 1 d . . . . .
C4 C -0.0654(5) 0.2540(5) 0.2496(4) 0.0238(16) Uani 1 1 d . . . . .
C5 C -0.1061(5) 0.3361(5) 0.2917(4) 0.0247(16) Uani 1 1 d . . . . .
H5 H -0.1526 0.4033 0.2769 0.030 Uiso 1 1 calc R . . . .
C6 C -0.1134(6) 0.3559(6) 0.4200(4) 0.0305(18) Uani 1 1 d . . . . .
C7 C -0.1586(7) 0.4805(6) 0.4012(4) 0.042(2) Uani 1 1 d . . . . .
H7A H -0.0955 0.5156 0.3854 0.063 Uiso 1 1 calc GR . . . .
H7B H -0.1909 0.5115 0.4402 0.063 Uiso 1 1 calc GR . . . .
H7C H -0.2174 0.4915 0.3665 0.063 Uiso 1 1 calc GR . . . .
C8 C -0.2149(8) 0.3050(7) 0.4443(5) 0.059(3) Uani 1 1 d . . . . .
H8A H -0.2675 0.3071 0.4072 0.088 Uiso 1 1 calc GR . . . .
H8B H -0.2543 0.3450 0.4782 0.088 Uiso 1 1 calc GR . . . .
H8C H -0.1880 0.2303 0.4630 0.088 Uiso 1 1 calc GR . . . .
C9 C -0.0221(7) 0.3434(9) 0.4740(4) 0.062(3) Uani 1 1 d . . . . .
H9A H 0.0085 0.2671 0.4866 0.093 Uiso 1 1 calc GR . . . .
H9B H -0.0555 0.3749 0.5126 0.093 Uiso 1 1 calc GR . . . .
H9C H 0.0394 0.3803 0.4576 0.093 Uiso 1 1 calc GR . . . .
C10 C 0.0824(6) 0.0573(5) 0.2774(4) 0.0261(17) Uani 1 1 d . . . . .
C11 C 0.0290(6) -0.0074(6) 0.2298(4) 0.036(2) Uani 1 1 d . . . . .
H11A H -0.0418 -0.0255 0.2481 0.054 Uiso 1 1 calc GR . . . .
H11B H 0.0824 -0.0736 0.2244 0.054 Uiso 1 1 calc GR . . . .
H11C H 0.0129 0.0361 0.1868 0.054 Uiso 1 1 calc GR . . . .
C12 C 0.1945(6) 0.0927(5) 0.2468(4) 0.0335(19) Uani 1 1 d . . . . .
H12A H 0.1738 0.1463 0.2082 0.050 Uiso 1 1 calc GR . . . .
H12B H 0.2451 0.0299 0.2335 0.050 Uiso 1 1 calc GR . . . .
H12C H 0.2334 0.1236 0.2798 0.050 Uiso 1 1 calc GR . . . .
C13 C 0.1185(6) -0.0207(6) 0.3414(4) 0.036(2) Uani 1 1 d . . . . .
H13A H 0.1625 0.0133 0.3704 0.055 Uiso 1 1 calc GR . . . .
H13B H 0.1653 -0.0870 0.3301 0.055 Uiso 1 1 calc GR . . . .
H13C H 0.0506 -0.0374 0.3642 0.055 Uiso 1 1 calc GR . . . .
C14 C -0.1072(6) 0.2693(6) 0.1761(4) 0.0288(17) Uani 1 1 d . . . . .
C15 C -0.1689(7) 0.3891(6) 0.1538(4) 0.040(2) Uani 1 1 d . . . . .
H15A H -0.2346 0.4071 0.1817 0.060 Uiso 1 1 calc GR . . . .
H15B H -0.1946 0.3962 0.1077 0.060 Uiso 1 1 calc GR . . . .
H15C H -0.1157 0.4381 0.1582 0.060 Uiso 1 1 calc GR . . . .
C16 C -0.1974(6) 0.1970(6) 0.1670(4) 0.037(2) Uani 1 1 d . . . . .
H16A H -0.1636 0.1216 0.1803 0.056 Uiso 1 1 calc GR . . . .
H16B H -0.2218 0.2065 0.1206 0.056 Uiso 1 1 calc GR . . . .
H16C H -0.2632 0.2177 0.1942 0.056 Uiso 1 1 calc GR . . . .
C17 C -0.0083(7) 0.2459(6) 0.1265(4) 0.040(2) Uani 1 1 d . . . . .
H17A H 0.0522 0.2848 0.1358 0.060 Uiso 1 1 calc GR . . . .
H17B H -0.0375 0.2695 0.0814 0.060 Uiso 1 1 calc GR . . . .
H17C H 0.0221 0.1687 0.1314 0.060 Uiso 1 1 calc GR . . . .
C18 C 0.3117(6) 0.3041(5) 0.3645(4) 0.0272(17) Uani 1 1 d . . . . .
C19 C 0.2422(6) 0.4122(6) 0.3600(4) 0.0266(16) Uani 1 1 d . . . . .
H19 H 0.2030 0.4419 0.3957 0.032 Uiso 1 1 calc R . . . .
C20 C 0.2413(6) 0.4675(5) 0.2939(3) 0.0187(14) Uani 1 1 d . U . . .
C21 C 0.3091(5) 0.3906(5) 0.2538(3) 0.0206(15) Uani 1 1 d . . . . .
C22 C 0.3503(5) 0.2940(5) 0.2989(4) 0.0233(16) Uani 1 1 d . . . . .
H22 H 0.3971 0.2318 0.2863 0.028 Uiso 1 1 calc R . . . .
C23 C 0.3594(6) 0.2288(6) 0.4265(4) 0.0363(18) Uani 1 1 d . U . . .
C24 C 0.2816(8) 0.2288(9) 0.4830(5) 0.080(3) Uani 1 1 d . U . . .
H24A H 0.2691 0.2994 0.4987 0.120 Uiso 1 1 calc GR . . . .
H24B H 0.3154 0.1739 0.5186 0.120 Uiso 1 1 calc GR . . . .
H24C H 0.2087 0.2131 0.4690 0.120 Uiso 1 1 calc GR . . . .
C25 C 0.4744(7) 0.2597(8) 0.4449(5) 0.062(3) Uani 1 1 d . . . . .
H25A H 0.5238 0.2584 0.4066 0.093 Uiso 1 1 calc GR . . . .
H25B H 0.5115 0.2081 0.4813 0.093 Uiso 1 1 calc GR . . . .
H25C H 0.4603 0.3319 0.4584 0.093 Uiso 1 1 calc GR . . . .
C26 C 0.3973(11) 0.1092(7) 0.4102(6) 0.084(4) Uani 1 1 d . . . . .
H26A H 0.3315 0.0838 0.3935 0.126 Uiso 1 1 calc GR . . . .
H26B H 0.4276 0.0629 0.4504 0.126 Uiso 1 1 calc GR . . . .
H26C H 0.4561 0.1071 0.3768 0.126 Uiso 1 1 calc GR . . . .
C27 C 0.1615(6) 0.5778(5) 0.2755(4) 0.0236(15) Uani 1 1 d . U . . .
C28 C 0.2136(7) 0.6597(6) 0.2282(4) 0.039(2) Uani 1 1 d . . . . .
H28A H 0.2807 0.6762 0.2494 0.058 Uiso 1 1 calc GR . . . .
H28B H 0.1572 0.7256 0.2179 0.058 Uiso 1 1 calc GR . . . .
H28C H 0.2359 0.6289 0.1875 0.058 Uiso 1 1 calc GR . . . .
C29 C 0.1256(7) 0.6334(6) 0.3381(4) 0.037(2) Uani 1 1 d . . . . .
H29A H 0.0829 0.5886 0.3671 0.056 Uiso 1 1 calc GR . . . .
H29B H 0.0777 0.7036 0.3250 0.056 Uiso 1 1 calc GR . . . .
H29C H 0.1937 0.6430 0.3616 0.056 Uiso 1 1 calc GR . . . .
C30 C 0.0478(6) 0.5553(6) 0.2444(4) 0.0332(18) Uani 1 1 d . . . . .
H30A H 0.0660 0.5175 0.2057 0.050 Uiso 1 1 calc GR . . . .
H30B H -0.0036 0.6236 0.2312 0.050 Uiso 1 1 calc GR . . . .
H30C H 0.0108 0.5109 0.2771 0.050 Uiso 1 1 calc GR . . . .
C31 C 0.3481(6) 0.4000(5) 0.1805(4) 0.0274(17) Uani 1 1 d . . . . .
C32 C 0.2462(7) 0.4424(7) 0.1293(4) 0.046(2) Uani 1 1 d . . . . .
H32A H 0.1886 0.3967 0.1365 0.069 Uiso 1 1 calc GR . . . .
H32B H 0.2746 0.4403 0.0844 0.069 Uiso 1 1 calc GR . . . .
H32C H 0.2123 0.5163 0.1353 0.069 Uiso 1 1 calc GR . . . .
C33 C 0.4056(8) 0.2885(6) 0.1613(5) 0.049(2) Uani 1 1 d . . . . .
H33A H 0.4702 0.2579 0.1914 0.073 Uiso 1 1 calc GR . . . .
H33B H 0.4326 0.2974 0.1160 0.073 Uiso 1 1 calc GR . . . .
H33C H 0.3503 0.2402 0.1644 0.073 Uiso 1 1 calc GR . . . .
C34 C 0.4390(7) 0.4743(6) 0.1709(4) 0.038(2) Uani 1 1 d . . . . .
H34A H 0.4050 0.5468 0.1799 0.057 Uiso 1 1 calc GR . . . .
H34B H 0.4653 0.4771 0.1254 0.057 Uiso 1 1 calc GR . . . .
H34C H 0.5036 0.4456 0.2013 0.057 Uiso 1 1 calc GR . . . .
F1 F 0.5763(3) 1.0722(3) 0.2412(2) 0.0335(10) Uani 1 1 d . . . . .
F2 F 0.6833(4) 1.1473(3) 0.3359(2) 0.0428(12) Uani 1 1 d . . . . .
F3 F 0.8454(4) 1.0099(4) 0.4197(2) 0.0425(12) Uani 1 1 d . . . . .
F4 F 0.9054(3) 0.7967(4) 0.3984(2) 0.0396(11) Uani 1 1 d . . . . .
F5 F 0.8030(3) 0.7188(3) 0.3011(2) 0.0310(10) Uani 1 1 d . . . . .
F6 F 0.4402(3) 0.9106(3) 0.3047(2) 0.0301(10) Uani 1 1 d . . . . .
F7 F 0.3485(3) 0.7969(3) 0.4058(2) 0.0370(11) Uani 1 1 d . . . . .
F8 F 0.4054(4) 0.5738(3) 0.4263(2) 0.0395(11) Uani 1 1 d . . . . .
F9 F 0.5549(4) 0.4677(3) 0.3412(2) 0.0366(11) Uani 1 1 d . . . . .
F10 F 0.6549(3) 0.5775(3) 0.2450(2) 0.0306(10) Uani 1 1 d . . . . .
F11 F 0.3510(3) 0.8479(3) 0.1872(2) 0.0356(11) Uani 1 1 d . . . . .
F12 F 0.2228(4) 0.9919(4) 0.0981(3) 0.0563(14) Uani 1 1 d . . . . .
F13 F 0.3169(5) 1.1405(4) 0.0170(3) 0.0637(16) Uani 1 1 d . . . . .
F14 F 0.5484(4) 1.1447(3) 0.0288(2) 0.0506(13) Uani 1 1 d . . . . .
F15 F 0.6812(4) 1.0015(3) 0.1209(2) 0.0365(11) Uani 1 1 d . . . . .
F16 F 0.5348(3) 0.6936(3) 0.1257(2) 0.0325(10) Uani 1 1 d . . . . .
F17 F 0.6522(4) 0.5821(4) 0.0345(2) 0.0463(12) Uani 1 1 d . . . . .
F18 F 0.8819(4) 0.5887(4) 0.0157(2) 0.0505(13) Uani 1 1 d . . . . .
F19 F 0.9895(4) 0.7098(4) 0.0903(2) 0.0486(13) Uani 1 1 d . . . . .
F20 F 0.8754(3) 0.8225(3) 0.1805(2) 0.0361(11) Uani 1 1 d . . . . .
C35 C 0.6858(6) 0.8910(5) 0.2640(4) 0.0235(16) Uani 1 1 d . . . . .
C36 C 0.6613(6) 0.9989(5) 0.2775(4) 0.0267(17) Uani 1 1 d . . . . .
C37 C 0.7133(6) 1.0400(6) 0.3273(4) 0.0294(17) Uani 1 1 d . . . . .
C38 C 0.7943(6) 0.9733(6) 0.3689(4) 0.0294(17) Uani 1 1 d . . . . .
C39 C 0.8243(6) 0.8647(6) 0.3582(4) 0.0280(17) Uani 1 1 d . . . . .
C40 C 0.7706(6) 0.8267(6) 0.3075(4) 0.0261(16) Uani 1 1 d . . . . .
C41 C 0.5497(6) 0.7521(5) 0.2669(4) 0.0231(15) Uani 1 1 d . . . . .
C42 C 0.4685(6) 0.7995(5) 0.3104(4) 0.0303(19) Uani 1 1 d . . . . .
C43 C 0.4231(6) 0.7444(6) 0.3640(4) 0.0268(17) Uani 1 1 d . . . . .
C44 C 0.4507(6) 0.6304(6) 0.3754(4) 0.0286(17) Uani 1 1 d . . . . .
C45 C 0.5273(6) 0.5779(5) 0.3322(4) 0.0267(16) Uani 1 1 d . . . . .
C46 C 0.5765(5) 0.6379(5) 0.2816(3) 0.0212(15) Uani 1 1 d . . . . .
C47 C 0.5246(6) 0.9188(5) 0.1608(4) 0.0239(16) Uani 1 1 d . . . . .
C48 C 0.4077(6) 0.9206(5) 0.1505(4) 0.0273(17) Uani 1 1 d . . . . .
C49 C 0.3374(7) 0.9926(7) 0.1038(4) 0.037(2) Uani 1 1 d . . . . .
C50 C 0.3842(8) 1.0689(6) 0.0627(4) 0.039(2) Uani 1 1 d . . . . .
C51 C 0.5013(7) 1.0699(5) 0.0696(4) 0.0313(18) Uani 1 1 d . . . . .
C52 C 0.5676(7) 0.9969(6) 0.1167(4) 0.0336(19) Uani 1 1 d . . . . .
C53 C 0.6991(6) 0.7610(5) 0.1601(3) 0.0211(15) Uani 1 1 d . . . . .
C54 C 0.6492(6) 0.6984(5) 0.1191(4) 0.0288(17) Uani 1 1 d . . . . .
C55 C 0.7065(7) 0.6410(6) 0.0712(4) 0.0327(18) Uani 1 1 d . . . . .
C56 C 0.8225(7) 0.6441(6) 0.0611(4) 0.0357(19) Uani 1 1 d . . . . .
C57 C 0.8759(6) 0.7058(6) 0.0996(4) 0.0326(18) Uani 1 1 d . . . . .
C58 C 0.8140(6) 0.7631(5) 0.1461(4) 0.0266(17) Uani 1 1 d . . . . .
B1 B 0.6147(6) 0.8304(6) 0.2127(4) 0.0202(17) Uani 1 1 d . . . . .

loop_
_atom_site_aniso_label
_atom_site_aniso_U_11
_atom_site_aniso_U_22
_atom_site_aniso_U_33
_atom_site_aniso_U_23
_atom_site_aniso_U_13
_atom_site_aniso_U_12
Dy1 0.01546(16) 0.01741(16) 0.0338(2) -0.00518(13) 0.00185(13) -0.00532(12)
C1 0.014(3) 0.021(4) 0.039(5) -0.007(3) 0.004(3) -0.010(3)
C2 0.013(3) 0.027(4) 0.030(4) 0.003(3) -0.005(3) -0.008(3)
C3 0.006(3) 0.019(3) 0.043(5) -0.005(3) 0.006(3) -0.003(3)
C4 0.014(3) 0.017(3) 0.041(5) -0.004(3) -0.001(3) -0.004(3)
C5 0.015(3) 0.015(3) 0.046(5) -0.005(3) -0.002(3) -0.006(3)
C6 0.021(4) 0.032(4) 0.040(5) -0.012(4) 0.009(3) -0.003(3)
C7 0.044(5) 0.035(5) 0.047(6) -0.012(4) 0.003(4) 0.002(4)
C8 0.054(6) 0.055(6) 0.073(7) -0.024(5) 0.038(5) -0.017(5)
C9 0.042(5) 0.099(8) 0.041(6) -0.028(6) -0.008(4) 0.014(5)
C10 0.017(3) 0.019(4) 0.045(5) -0.008(3) 0.004(3) -0.008(3)
C11 0.032(4) 0.020(4) 0.061(6) -0.016(4) -0.003(4) -0.011(3)
C12 0.030(4) 0.018(4) 0.052(5) -0.014(4) 0.016(4) 0.002(3)
C13 0.027(4) 0.020(4) 0.059(6) 0.003(4) -0.002(4) -0.002(3)
C14 0.025(4) 0.026(4) 0.037(5) -0.005(3) -0.001(3) -0.010(3)
C15 0.052(5) 0.029(4) 0.041(5) -0.002(4) -0.019(4) -0.012(4)
C16 0.025(4) 0.038(4) 0.052(6) -0.006(4) -0.011(4) -0.014(4)
C17 0.044(5) 0.036(4) 0.039(5) -0.001(4) 0.005(4) -0.010(4)
C18 0.013(3) 0.022(4) 0.049(5) -0.003(3) -0.006(3) -0.011(3)
C19 0.020(4) 0.027(4) 0.037(5) -0.010(3) 0.002(3) -0.009(3)
C20 0.021(3) 0.011(3) 0.027(3) -0.004(2) -0.002(2) -0.010(2)
C21 0.017(3) 0.019(3) 0.028(4) -0.002(3) 0.002(3) -0.010(3)
C22 0.011(3) 0.021(4) 0.037(5) -0.007(3) 0.000(3) 0.003(3)
C23 0.026(4) 0.042(4) 0.038(5) 0.012(4) -0.009(3) -0.009(4)
C24 0.050(5) 0.106(7) 0.062(6) 0.041(6) 0.000(5) 0.007(5)
C25 0.045(5) 0.090(8) 0.048(6) 0.023(6) -0.022(4) -0.026(5)
C26 0.126(10) 0.037(5) 0.082(9) 0.023(5) -0.047(7) -0.017(6)
C27 0.030(4) 0.008(3) 0.033(4) -0.005(3) -0.002(3) -0.002(3)
C28 0.044(5) 0.017(4) 0.053(6) 0.000(4) 0.006(4) -0.003(4)
C29 0.036(5) 0.025(4) 0.053(6) -0.017(4) 0.003(4) -0.003(4)
C30 0.033(4) 0.019(4) 0.049(5) -0.008(4) 0.000(4) -0.005(3)
C31 0.030(4) 0.016(3) 0.038(5) -0.008(3) 0.004(3) -0.005(3)
C32 0.043(5) 0.066(6) 0.032(5) -0.015(5) 0.001(4) -0.014(5)
C33 0.058(6) 0.038(5) 0.058(6) -0.020(5) 0.032(5) -0.019(4)
C34 0.038(5) 0.027(4) 0.056(6) -0.015(4) 0.017(4) -0.016(4)
F1 0.035(2) 0.017(2) 0.047(3) -0.0081(19) -0.002(2) 0.0013(18)
F2 0.052(3) 0.028(2) 0.054(3) -0.022(2) 0.006(2) -0.010(2)
F3 0.037(3) 0.052(3) 0.045(3) -0.017(2) -0.003(2) -0.019(2)
F4 0.028(2) 0.053(3) 0.037(3) 0.000(2) -0.006(2) -0.006(2)
F5 0.024(2) 0.023(2) 0.044(3) 0.000(2) -0.0030(19) -0.0009(18)
F6 0.027(2) 0.0157(19) 0.046(3) -0.0052(19) 0.0072(19) 0.0006(17)
F7 0.028(2) 0.037(2) 0.043(3) -0.006(2) 0.011(2) 0.003(2)
F8 0.032(2) 0.041(3) 0.045(3) 0.007(2) 0.007(2) -0.015(2)
F9 0.039(3) 0.016(2) 0.053(3) 0.004(2) 0.003(2) -0.0068(19)
F10 0.031(2) 0.0170(19) 0.044(3) -0.0042(19) 0.008(2) -0.0032(18)
F11 0.022(2) 0.034(2) 0.049(3) 0.004(2) -0.002(2) -0.0085(19)
F12 0.034(3) 0.070(3) 0.054(3) 0.009(3) -0.012(2) 0.006(3)
F13 0.073(4) 0.052(3) 0.049(3) 0.018(3) -0.012(3) 0.017(3)
F14 0.078(4) 0.031(2) 0.040(3) 0.006(2) 0.016(3) -0.008(2)
F15 0.033(2) 0.023(2) 0.054(3) -0.004(2) 0.012(2) -0.0102(19)
F16 0.033(2) 0.027(2) 0.041(3) -0.009(2) 0.004(2) -0.0136(19)
F17 0.065(3) 0.041(3) 0.041(3) -0.022(2) 0.006(2) -0.021(2)
F18 0.057(3) 0.054(3) 0.038(3) -0.013(3) 0.014(2) 0.001(3)
F19 0.028(2) 0.062(3) 0.055(3) -0.010(3) 0.012(2) -0.002(2)
F20 0.029(2) 0.040(3) 0.044(3) -0.010(2) 0.004(2) -0.016(2)
C35 0.018(3) 0.020(3) 0.033(4) -0.005(3) 0.006(3) -0.005(3)
C36 0.023(4) 0.018(3) 0.037(5) -0.003(3) 0.002(3) 0.000(3)
C37 0.031(4) 0.022(4) 0.038(5) -0.010(3) 0.002(3) -0.005(3)
C38 0.026(4) 0.035(4) 0.036(5) -0.017(4) 0.004(3) -0.019(3)
C39 0.019(4) 0.039(4) 0.024(4) 0.002(3) 0.002(3) -0.005(3)
C40 0.016(3) 0.023(4) 0.039(5) -0.007(3) 0.004(3) -0.003(3)
C41 0.017(3) 0.022(4) 0.033(4) -0.005(3) 0.002(3) -0.008(3)
C42 0.028(4) 0.007(3) 0.053(5) -0.001(3) 0.019(4) 0.000(3)
C43 0.016(3) 0.023(4) 0.041(5) -0.005(3) -0.001(3) -0.005(3)
C44 0.023(4) 0.034(4) 0.028(4) 0.008(3) 0.001(3) -0.011(3)
C45 0.024(4) 0.019(3) 0.038(5) -0.001(3) -0.001(3) -0.007(3)
C46 0.014(3) 0.023(4) 0.026(4) -0.007(3) 0.005(3) 0.000(3)
C47 0.029(4) 0.011(3) 0.033(4) -0.006(3) 0.006(3) -0.006(3)
C48 0.032(4) 0.020(4) 0.028(4) -0.001(3) 0.005(3) -0.003(3)
C49 0.029(4) 0.042(5) 0.037(5) -0.008(4) 0.000(4) 0.004(4)
C50 0.054(5) 0.031(4) 0.026(5) -0.004(4) -0.003(4) 0.012(4)
C51 0.051(5) 0.015(3) 0.028(4) 0.000(3) 0.004(4) -0.007(3)
C52 0.045(5) 0.017(4) 0.038(5) -0.013(3) 0.007(4) 0.003(3)
C53 0.023(4) 0.015(3) 0.024(4) 0.003(3) 0.002(3) -0.004(3)
C54 0.036(4) 0.019(4) 0.029(4) 0.004(3) 0.006(3) -0.003(3)
C55 0.045(5) 0.022(4) 0.032(5) -0.006(3) -0.001(4) -0.006(4)
C56 0.041(5) 0.029(4) 0.033(5) -0.009(4) 0.007(4) 0.006(4)
C57 0.028(4) 0.034(4) 0.032(5) 0.001(4) 0.004(3) 0.003(4)
C58 0.026(4) 0.016(3) 0.036(5) -0.002(3) -0.004(3) -0.002(3)
B1 0.015(4) 0.015(4) 0.032(5) -0.004(3) 0.002(3) -0.005(3)

_geom_special_details            
;
 All esds (except the esd in the dihedral angle between two l.s. planes)
 are estimated using the full covariance matrix.  The cell esds are taken
 into account individually in the estimation of esds in distances, angles
 and torsion angles; correlations between esds in cell parameters are only
 used when they are defined by crystal symmetry.  An approximate (isotropic)
 treatment of cell esds is used for estimating esds involving l.s. planes.
;
loop_
_geom_bond_atom_site_label_1
_geom_bond_atom_site_label_2
_geom_bond_distance
_geom_bond_site_symmetry_2
_geom_bond_publ_flag
Dy1 C1 2.674(6) . ?
Dy1 C2 2.569(7) . ?
Dy1 C3 2.559(6) . ?
Dy1 C4 2.583(7) . ?
Dy1 C5 2.641(6) . ?
Dy1 C18 2.711(7) . ?
Dy1 C19 2.597(7) . ?
Dy1 C20 2.568(6) . ?
Dy1 C21 2.577(6) . ?
Dy1 C22 2.652(6) . ?
C1 C2 1.422(9) . ?
C1 C5 1.401(10) . ?
C1 C6 1.532(10) . ?
C2 H2 0.9300 . ?
C2 C3 1.406(10) . ?
C3 C4 1.444(9) . ?
C3 C10 1.549(9) . ?
C4 C5 1.423(9) . ?
C4 C14 1.530(10) . ?
C5 H5 0.9300 . ?
C6 C7 1.553(10) . ?
C6 C8 1.500(10) . ?
C6 C9 1.498(11) . ?
C7 H7A 0.9600 . ?
C7 H7B 0.9600 . ?
C7 H7C 0.9600 . ?
C8 H8A 0.9600 . ?
C8 H8B 0.9600 . ?
C8 H8C 0.9600 . ?
C9 H9A 0.9600 . ?
C9 H9B 0.9600 . ?
C9 H9C 0.9600 . ?
C10 C11 1.527(10) . ?
C10 C12 1.560(9) . ?
C10 C13 1.524(10) . ?
C11 H11A 0.9600 . ?
C11 H11B 0.9600 . ?
C11 H11C 0.9600 . ?
C12 H12A 0.9600 . ?
C12 H12B 0.9600 . ?
C12 H12C 0.9600 . ?
C13 H13A 0.9600 . ?
C13 H13B 0.9600 . ?
C13 H13C 0.9600 . ?
C14 C15 1.554(10) . ?
C14 C16 1.535(9) . ?
C14 C17 1.536(10) . ?
C15 H15A 0.9600 . ?
C15 H15B 0.9600 . ?
C15 H15C 0.9600 . ?
C16 H16A 0.9600 . ?
C16 H16B 0.9600 . ?
C16 H16C 0.9600 . ?
C17 H17A 0.9600 . ?
C17 H17B 0.9600 . ?
C17 H17C 0.9600 . ?
C18 C19 1.439(9) . ?
C18 C22 1.402(10) . ?
C18 C23 1.505(10) . ?
C19 H19 0.9300 . ?
C19 C20 1.415(10) . ?
C20 C21 1.453(9) . ?
C20 C27 1.525(8) . ?
C21 C22 1.426(9) . ?
C21 C31 1.533(10) . ?
C22 H22 0.9300 . ?
C23 C24 1.452(11) . ?
C23 C25 1.524(11) . ?
C23 C26 1.555(12) . ?
C24 H24A 0.9600 . ?
C24 H24B 0.9600 . ?
C24 H24C 0.9600 . ?
C25 H25A 0.9600 . ?
C25 H25B 0.9600 . ?
C25 H25C 0.9600 . ?
C26 H26A 0.9600 . ?
C26 H26B 0.9600 . ?
C26 H26C 0.9600 . ?
C27 C28 1.518(10) . ?
C27 C29 1.530(9) . ?
C27 C30 1.556(10) . ?
C28 H28A 0.9600 . ?
C28 H28B 0.9600 . ?
C28 H28C 0.9600 . ?
C29 H29A 0.9600 . ?
C29 H29B 0.9600 . ?
C29 H29C 0.9600 . ?
C30 H30A 0.9600 . ?
C30 H30B 0.9600 . ?
C30 H30C 0.9600 . ?
C31 C32 1.550(11) . ?
C31 C33 1.529(9) . ?
C31 C34 1.531(9) . ?
C32 H32A 0.9600 . ?
C32 H32B 0.9600 . ?
C32 H32C 0.9600 . ?
C33 H33A 0.9600 . ?
C33 H33B 0.9600 . ?
C33 H33C 0.9600 . ?
C34 H34A 0.9600 . ?
C34 H34B 0.9600 . ?
C34 H34C 0.9600 . ?
F1 C36 1.369(8) . ?
F2 C37 1.356(7) . ?
F3 C38 1.348(8) . ?
F4 C39 1.348(8) . ?
F5 C40 1.356(7) . ?
F6 C42 1.359(7) . ?
F7 C43 1.350(7) . ?
F8 C44 1.334(8) . ?
F9 C45 1.347(7) . ?
F10 C46 1.355(7) . ?
F11 C48 1.364(8) . ?
F12 C49 1.350(9) . ?
F13 C50 1.345(9) . ?
F14 C51 1.359(8) . ?
F15 C52 1.347(9) . ?
F16 C54 1.358(8) . ?
F17 C55 1.337(8) . ?
F18 C56 1.330(8) . ?
F19 C57 1.352(8) . ?
F20 C58 1.365(8) . ?
C35 C36 1.388(9) . ?
C35 C40 1.393(10) . ?
C35 B1 1.658(10) . ?
C36 C37 1.368(10) . ?
C37 C38 1.356(10) . ?
C38 C39 1.383(10) . ?
C39 C40 1.372(10) . ?
C41 C42 1.392(9) . ?
C41 C46 1.400(9) . ?
C41 B1 1.649(10) . ?
C42 C43 1.364(10) . ?
C43 C44 1.394(9) . ?
C44 C45 1.382(9) . ?
C45 C46 1.375(9) . ?
C47 C48 1.381(10) . ?
C47 C52 1.398(10) . ?
C47 B1 1.649(10) . ?
C48 C49 1.375(10) . ?
C49 C50 1.374(11) . ?
C50 C51 1.380(11) . ?
C51 C52 1.364(10) . ?
C53 C54 1.397(10) . ?
C53 C58 1.379(9) . ?
C53 B1 1.657(10) . ?
C54 C55 1.372(10) . ?
C55 C56 1.380(11) . ?
C56 C57 1.379(11) . ?
C57 C58 1.371(10) . ?

loop_
_geom_angle_atom_site_label_1
_geom_angle_atom_site_label_2
_geom_angle_atom_site_label_3
_geom_angle
_geom_angle_site_symmetry_1
_geom_angle_site_symmetry_3
_geom_angle_publ_flag
C1 Dy1 C18 111.1(2) . . ?
C2 Dy1 C1 31.40(19) . . ?
C2 Dy1 C4 52.7(2) . . ?
C2 Dy1 C5 51.0(2) . . ?
C2 Dy1 C18 102.1(2) . . ?
C2 Dy1 C19 110.6(2) . . ?
C2 Dy1 C21 153.7(2) . . ?
C2 Dy1 C22 122.8(2) . . ?
C3 Dy1 C1 52.8(2) . . ?
C3 Dy1 C2 31.8(2) . . ?
C3 Dy1 C4 32.6(2) . . ?
C3 Dy1 C5 52.27(19) . . ?
C3 Dy1 C18 122.0(2) . . ?
C3 Dy1 C19 140.8(2) . . ?
C3 Dy1 C20 172.4(2) . . ?
C3 Dy1 C21 151.20(19) . . ?
C3 Dy1 C22 127.2(2) . . ?
C4 Dy1 C1 52.5(2) . . ?
C4 Dy1 C5 31.6(2) . . ?
C4 Dy1 C18 153.7(2) . . ?
C4 Dy1 C19 153.7(2) . . ?
C4 Dy1 C22 153.3(2) . . ?
C5 Dy1 C1 30.6(2) . . ?
C5 Dy1 C18 140.7(2) . . ?
C5 Dy1 C22 170.9(2) . . ?
C19 Dy1 C1 102.1(2) . . ?
C19 Dy1 C5 122.8(2) . . ?
C19 Dy1 C18 31.4(2) . . ?
C19 Dy1 C22 50.7(2) . . ?
C20 Dy1 C1 121.8(2) . . ?
C20 Dy1 C2 140.6(2) . . ?
C20 Dy1 C4 151.0(2) . . ?
C20 Dy1 C5 126.8(2) . . ?
C20 Dy1 C18 52.9(2) . . ?
C20 Dy1 C19 31.8(2) . . ?
C20 Dy1 C21 32.8(2) . . ?
C20 Dy1 C22 52.3(2) . . ?
C21 Dy1 C1 153.7(2) . . ?
C21 Dy1 C4 150.5(2) . . ?
C21 Dy1 C5 153.0(2) . . ?
C21 Dy1 C18 52.5(2) . . ?
C21 Dy1 C19 52.7(2) . . ?
C21 Dy1 C22 31.6(2) . . ?
C22 Dy1 C1 140.5(2) . . ?
C22 Dy1 C18 30.3(2) . . ?
C2 C1 Dy1 70.2(4) . . ?
C2 C1 C6 127.2(7) . . ?
C5 C1 Dy1 73.4(4) . . ?
C5 C1 C2 105.3(6) . . ?
C5 C1 C6 125.9(6) . . ?
C6 C1 Dy1 132.1(4) . . ?
Dy1 C2 H2 115.2 . . ?
C1 C2 Dy1 78.4(4) . . ?
C1 C2 H2 124.6 . . ?
C3 C2 Dy1 73.7(4) . . ?
C3 C2 C1 110.9(6) . . ?
C3 C2 H2 124.6 . . ?
C2 C3 Dy1 74.5(4) . . ?
C2 C3 C4 106.6(6) . . ?
C2 C3 C10 120.2(6) . . ?
C4 C3 Dy1 74.6(4) . . ?
C4 C3 C10 132.2(7) . . ?
C10 C3 Dy1 108.0(4) . . ?
C3 C4 Dy1 72.8(4) . . ?
C3 C4 C14 133.6(6) . . ?
C5 C4 Dy1 76.5(4) . . ?
C5 C4 C3 106.1(6) . . ?
C5 C4 C14 119.8(6) . . ?
C14 C4 Dy1 121.8(5) . . ?
Dy1 C5 H5 119.2 . . ?
C1 C5 Dy1 76.0(4) . . ?
C1 C5 C4 111.1(6) . . ?
C1 C5 H5 124.5 . . ?
C4 C5 Dy1 72.0(3) . . ?
C4 C5 H5 124.5 . . ?
C1 C6 C7 111.1(6) . . ?
C8 C6 C1 107.3(6) . . ?
C8 C6 C7 107.4(6) . . ?
C9 C6 C1 112.0(6) . . ?
C9 C6 C7 107.3(7) . . ?
C9 C6 C8 111.7(8) . . ?
C6 C7 H7A 109.5 . . ?
C6 C7 H7B 109.5 . . ?
C6 C7 H7C 109.5 . . ?
H7A C7 H7B 109.5 . . ?
H7A C7 H7C 109.5 . . ?
H7B C7 H7C 109.5 . . ?
C6 C8 H8A 109.5 . . ?
C6 C8 H8B 109.5 . . ?
C6 C8 H8C 109.5 . . ?
H8A C8 H8B 109.5 . . ?
H8A C8 H8C 109.5 . . ?
H8B C8 H8C 109.5 . . ?
C6 C9 H9A 109.5 . . ?
C6 C9 H9B 109.5 . . ?
C6 C9 H9C 109.5 . . ?
H9A C9 H9B 109.5 . . ?
H9A C9 H9C 109.5 . . ?
H9B C9 H9C 109.5 . . ?
C3 C10 C12 106.4(5) . . ?
C11 C10 C3 114.4(6) . . ?
C11 C10 C12 110.3(6) . . ?
C13 C10 C3 111.5(6) . . ?
C13 C10 C11 106.6(6) . . ?
C13 C10 C12 107.5(6) . . ?
C10 C11 H11A 109.5 . . ?
C10 C11 H11B 109.5 . . ?
C10 C11 H11C 109.5 . . ?
H11A C11 H11B 109.5 . . ?
H11A C11 H11C 109.5 . . ?
H11B C11 H11C 109.5 . . ?
C10 C12 H12A 109.5 . . ?
C10 C12 H12B 109.5 . . ?
C10 C12 H12C 109.5 . . ?
H12A C12 H12B 109.5 . . ?
H12A C12 H12C 109.5 . . ?
H12B C12 H12C 109.5 . . ?
C10 C13 H13A 109.5 . . ?
C10 C13 H13B 109.5 . . ?
C10 C13 H13C 109.5 . . ?
H13A C13 H13B 109.5 . . ?
H13A C13 H13C 109.5 . . ?
H13B C13 H13C 109.5 . . ?
C4 C14 C15 111.3(6) . . ?
C4 C14 C16 110.4(6) . . ?
C4 C14 C17 113.4(6) . . ?
C16 C14 C15 106.0(6) . . ?
C16 C14 C17 109.6(6) . . ?
C17 C14 C15 105.7(6) . . ?
C14 C15 H15A 109.5 . . ?
C14 C15 H15B 109.5 . . ?
C14 C15 H15C 109.5 . . ?
H15A C15 H15B 109.5 . . ?
H15A C15 H15C 109.5 . . ?
H15B C15 H15C 109.5 . . ?
C14 C16 H16A 109.5 . . ?
C14 C16 H16B 109.5 . . ?
C14 C16 H16C 109.5 . . ?
H16A C16 H16B 109.5 . . ?
H16A C16 H16C 109.5 . . ?
H16B C16 H16C 109.5 . . ?
C14 C17 H17A 109.5 . . ?
C14 C17 H17B 109.5 . . ?
C14 C17 H17C 109.5 . . ?
H17A C17 H17B 109.5 . . ?
H17A C17 H17C 109.5 . . ?
H17B C17 H17C 109.5 . . ?
C19 C18 Dy1 69.9(4) . . ?
C19 C18 C23 128.6(7) . . ?
C22 C18 Dy1 72.5(4) . . ?
C22 C18 C19 104.4(6) . . ?
C22 C18 C23 125.2(6) . . ?
C23 C18 Dy1 132.9(5) . . ?
Dy1 C19 H19 115.6 . . ?
C18 C19 Dy1 78.7(4) . . ?
C18 C19 H19 124.4 . . ?
C20 C19 Dy1 73.0(4) . . ?
C20 C19 C18 111.1(6) . . ?
C20 C19 H19 124.4 . . ?
C19 C20 Dy1 75.2(4) . . ?
C19 C20 C21 106.3(6) . . ?
C19 C20 C27 120.0(6) . . ?
C21 C20 Dy1 73.9(3) . . ?
C21 C20 C27 132.8(6) . . ?
C27 C20 Dy1 107.9(4) . . ?
C20 C21 Dy1 73.2(3) . . ?
C20 C21 C31 133.2(6) . . ?
C22 C21 Dy1 77.1(4) . . ?
C22 C21 C20 106.1(6) . . ?
C22 C21 C31 120.5(6) . . ?
C31 C21 Dy1 119.8(4) . . ?
Dy1 C22 H22 119.0 . . ?
C18 C22 Dy1 77.2(4) . . ?
C18 C22 C21 112.0(6) . . ?
C18 C22 H22 124.0 . . ?
C21 C22 Dy1 71.3(3) . . ?
C21 C22 H22 124.0 . . ?
C18 C23 C25 107.2(6) . . ?
C18 C23 C26 111.0(7) . . ?
C24 C23 C18 114.9(7) . . ?
C24 C23 C25 111.7(8) . . ?
C24 C23 C26 108.9(8) . . ?
C25 C23 C26 102.6(7) . . ?
C23 C24 H24A 109.5 . . ?
C23 C24 H24B 109.5 . . ?
C23 C24 H24C 109.5 . . ?
H24A C24 H24B 109.5 . . ?
H24A C24 H24C 109.5 . . ?
H24B C24 H24C 109.5 . . ?
C23 C25 H25A 109.5 . . ?
C23 C25 H25B 109.5 . . ?
C23 C25 H25C 109.5 . . ?
H25A C25 H25B 109.5 . . ?
H25A C25 H25C 109.5 . . ?
H25B C25 H25C 109.5 . . ?
C23 C26 H26A 109.5 . . ?
C23 C26 H26B 109.5 . . ?
C23 C26 H26C 109.5 . . ?
H26A C26 H26B 109.5 . . ?
H26A C26 H26C 109.5 . . ?
H26B C26 H26C 109.5 . . ?
C20 C27 C29 111.3(6) . . ?
C20 C27 C30 107.5(5) . . ?
C28 C27 C20 114.6(6) . . ?
C28 C27 C29 106.3(6) . . ?
C28 C27 C30 110.6(6) . . ?
C29 C27 C30 106.2(6) . . ?
C27 C28 H28A 109.5 . . ?
C27 C28 H28B 109.5 . . ?
C27 C28 H28C 109.5 . . ?
H28A C28 H28B 109.5 . . ?
H28A C28 H28C 109.5 . . ?
H28B C28 H28C 109.5 . . ?
C27 C29 H29A 109.5 . . ?
C27 C29 H29B 109.5 . . ?
C27 C29 H29C 109.5 . . ?
H29A C29 H29B 109.5 . . ?
H29A C29 H29C 109.5 . . ?
H29B C29 H29C 109.5 . . ?
C27 C30 H30A 109.5 . . ?
C27 C30 H30B 109.5 . . ?
C27 C30 H30C 109.5 . . ?
H30A C30 H30B 109.5 . . ?
H30A C30 H30C 109.5 . . ?
H30B C30 H30C 109.5 . . ?
C21 C31 C32 113.1(6) . . ?
C33 C31 C21 111.3(6) . . ?
C33 C31 C32 105.5(6) . . ?
C33 C31 C34 106.6(6) . . ?
C34 C31 C21 110.1(6) . . ?
C34 C31 C32 109.9(6) . . ?
C31 C32 H32A 109.5 . . ?
C31 C32 H32B 109.5 . . ?
C31 C32 H32C 109.5 . . ?
H32A C32 H32B 109.5 . . ?
H32A C32 H32C 109.5 . . ?
H32B C32 H32C 109.5 . . ?
C31 C33 H33A 109.5 . . ?
C31 C33 H33B 109.5 . . ?
C31 C33 H33C 109.5 . . ?
H33A C33 H33B 109.5 . . ?
H33A C33 H33C 109.5 . . ?
H33B C33 H33C 109.5 . . ?
C31 C34 H34A 109.5 . . ?
C31 C34 H34B 109.5 . . ?
C31 C34 H34C 109.5 . . ?
H34A C34 H34B 109.5 . . ?
H34A C34 H34C 109.5 . . ?
H34B C34 H34C 109.5 . . ?
C36 C35 C40 112.3(7) . . ?
C36 C35 B1 128.1(6) . . ?
C40 C35 B1 118.8(6) . . ?
F1 C36 C35 119.9(6) . . ?
C37 C36 F1 115.0(6) . . ?
C37 C36 C35 125.1(7) . . ?
F2 C37 C36 120.3(7) . . ?
C38 C37 F2 119.6(7) . . ?
C38 C37 C36 120.1(6) . . ?
F3 C38 C37 122.0(6) . . ?
F3 C38 C39 119.8(7) . . ?
C37 C38 C39 118.2(7) . . ?
F4 C39 C38 119.5(7) . . ?
F4 C39 C40 120.5(7) . . ?
C40 C39 C38 119.9(7) . . ?
F5 C40 C35 119.2(6) . . ?
F5 C40 C39 116.5(6) . . ?
C39 C40 C35 124.3(6) . . ?
C42 C41 C46 112.3(6) . . ?
C42 C41 B1 120.0(6) . . ?
C46 C41 B1 127.2(6) . . ?
F6 C42 C41 118.6(6) . . ?
F6 C42 C43 115.7(6) . . ?
C43 C42 C41 125.3(6) . . ?
F7 C43 C42 121.8(6) . . ?
F7 C43 C44 118.2(6) . . ?
C42 C43 C44 119.9(6) . . ?
F8 C44 C43 121.4(6) . . ?
F8 C44 C45 121.0(6) . . ?
C45 C44 C43 117.6(7) . . ?
F9 C45 C44 119.2(6) . . ?
F9 C45 C46 120.7(6) . . ?
C46 C45 C44 120.1(6) . . ?
F10 C46 C41 120.8(6) . . ?
F10 C46 C45 114.5(6) . . ?
C45 C46 C41 124.6(6) . . ?
C48 C47 C52 112.8(7) . . ?
C48 C47 B1 127.3(6) . . ?
C52 C47 B1 119.7(6) . . ?
F11 C48 C47 121.4(6) . . ?
F11 C48 C49 113.5(7) . . ?
C49 C48 C47 125.1(7) . . ?
F12 C49 C48 121.8(7) . . ?
F12 C49 C50 118.8(7) . . ?
C50 C49 C48 119.4(7) . . ?
F13 C50 C49 120.3(8) . . ?
F13 C50 C51 121.4(8) . . ?
C49 C50 C51 118.3(7) . . ?
F14 C51 C50 118.7(7) . . ?
F14 C51 C52 121.1(7) . . ?
C52 C51 C50 120.2(7) . . ?
F15 C52 C47 118.3(7) . . ?
F15 C52 C51 117.6(7) . . ?
C51 C52 C47 124.1(8) . . ?
C54 C53 B1 118.5(6) . . ?
C58 C53 C54 112.7(6) . . ?
C58 C53 B1 128.5(6) . . ?
F16 C54 C53 118.8(6) . . ?
F16 C54 C55 116.1(7) . . ?
C55 C54 C53 125.2(7) . . ?
F17 C55 C54 121.2(7) . . ?
F17 C55 C56 119.8(7) . . ?
C54 C55 C56 119.0(7) . . ?
F18 C56 C55 121.0(7) . . ?
F18 C56 C57 120.5(7) . . ?
C57 C56 C55 118.4(7) . . ?
F19 C57 C56 119.2(7) . . ?
F19 C57 C58 120.6(7) . . ?
C58 C57 C56 120.2(7) . . ?
F20 C58 C53 120.5(6) . . ?
F20 C58 C57 115.1(6) . . ?
C57 C58 C53 124.4(7) . . ?
C41 B1 C35 101.3(6) . . ?
C41 B1 C53 113.4(5) . . ?
C47 B1 C35 112.5(5) . . ?
C47 B1 C41 113.9(5) . . ?
C47 B1 C53 102.2(6) . . ?
C53 B1 C35 114.0(5) . . ?

_smtbx_masks_special_details     ?
loop_
_smtbx_masks_void_nr
_smtbx_masks_void_average_x
_smtbx_masks_void_average_y
_smtbx_masks_void_average_z
_smtbx_masks_void_volume
_smtbx_masks_void_count_electrons
_smtbx_masks_void_content
1 0.000 0.000 0.000 237.7 35.9 ?
2 -0.042 0.097 0.517 7.3 0.0 ?
3 0.042 0.903 0.483 7.3 0.0 ?

_shelx_fab_file                  
;
-14 -6 1 -5.9039 0.0821
-14 -6 2 -5.3353 0.1221
-14 -5 1 -6.5438 0.0032
-14 -5 2 -6.0232 0.0031
-14 -5 3 -4.8231 -0.0128
-14 -5 4 -3.4318 -0.0351
-14 -4 1 0.9420 -0.1043
-14 -4 2 -0.3542 -0.0396
-14 -4 3 -0.7669 0.0315
-14 -4 4 -0.0971 0.0870
-14 -4 5 1.2879 0.1050
-14 -3 1 0.2409 0.1303
-14 -3 2 -0.0703 0.0635
-14 -3 3 0.1285 -0.0217
-14 -3 4 0.5724 -0.0897
-14 -3 5 0.8672 -0.1084
-14 -2 1 2.1475 0.0771
-14 -2 2 2.9045 0.0821
-14 -2 3 2.9634 0.0445
-14 -2 4 2.3076 -0.0102
-14 -2 5 1.1307 -0.0472
-14 -2 6 -0.1991 -0.0423
-14 -1 1 0.5706 -0.0903
-14 -1 2 0.0499 -0.0698
-14 -1 3 -0.2071 -0.0200
-14 -1 4 -0.0014 0.0263
-14 -1 5 0.5110 0.0335
-14 0 1 2.0710 0.0436
-14 0 2 2.3588 -0.0567
-14 0 3 1.9815 -0.1055
-14 0 4 1.0358 -0.0771
-14 1 1 -1.6898 0.1610
-13 -8 1 -1.1791 -0.1049
-13 -8 2 -2.0300 -0.0826
-13 -8 3 -1.9461 -0.0592
-13 -8 4 -1.1619 -0.0372
-13 -7 1 -1.8726 0.0788
-13 -7 2 -2.1227 0.0577
-13 -7 3 -1.7833 0.0204
-13 -7 4 -1.0728 -0.0230
-13 -7 5 -0.2387 -0.0611
-13 -7 6 0.5187 -0.0863
-13 -6 1 5.4948 -0.0333
-13 -6 2 4.4689 -0.0456
-13 -6 3 3.1771 -0.0317
-13 -6 4 1.9912 0.0069
-13 -6 5 1.1593 0.0574
-13 -6 6 0.7104 0.1008
-13 -6 7 0.4738 0.1215
-13 -6 8 0.2018 0.1163
-13 -5 1 -4.2870 0.0091
-13 -5 2 -4.5611 0.0306
-13 -5 3 -3.4391 0.0383
-13 -5 4 -1.4321 0.0280
-13 -5 5 0.5579 0.0068
-13 -5 6 1.6876 -0.0112
-13 -5 7 1.5766 -0.0126
-13 -5 8 0.4534 0.0075
-13 -5 9 -1.0153 0.0426
-13 -4 1 -3.0606 -0.0068
-13 -4 2 -2.6966 -0.0008
-13 -4 3 -1.9091 -0.0070
-13 -4 4 -1.0310 -0.0189
-13 -4 5 -0.4739 -0.0269
-13 -4 6 -0.5391 -0.0265
-13 -4 7 -1.2602 -0.0226
-13 -4 8 -2.3640 -0.0269
-13 -4 9 -3.3826 -0.0484
-13 -4 10 -3.8709 -0.0862
-13 -3 1 1.3980 -0.0247
-13 -3 2 -0.4355 0.0097
-13 -3 3 -1.6367 0.0494
-13 -3 4 -1.6529 0.0821
-13 -3 5 -0.5464 0.0915
-13 -3 6 1.0000 0.0654
-13 -3 7 2.0190 0.0053
-13 -3 8 1.7664 -0.0681
-13 -3 9 0.1222 -0.1196
-13 -3 10 -2.3397 -0.1138
-13 -2 1 2.4008 0.1103
-13 -2 2 1.7738 0.0757
-13 -2 3 1.3594 0.0126
-13 -2 4 1.1371 -0.0535
-13 -2 5 0.9522 -0.0933
-13 -2 6 0.6208 -0.0885
-13 -2 7 0.0359 -0.0421
-13 -2 8 -0.7760 0.0219
-13 -2 9 -1.6667 0.0699
-13 -2 10 -2.4291 0.0745
-13 -1 1 -0.2385 -0.0043
-13 -1 2 1.0289 0.0107
-13 -1 3 1.6001 -0.0147
-13 -1 4 1.3508 -0.0609
-13 -1 5 0.4546 -0.0939
-13 -1 6 -0.6640 -0.0852
-13 -1 7 -1.4864 -0.0305
-13 -1 8 -1.6116 0.0459
-13 -1 9 -0.9269 0.1048
-13 -1 10 0.3482 0.1156
-13 0 1 -0.5740 -0.0396
-13 0 2 -1.6874 -0.0475
-13 0 3 -2.4995 -0.0181
-13 0 4 -2.7825 0.0308
-13 0 5 -2.6156 0.0689
-13 0 6 -2.3380 0.0730
-13 0 7 -2.3227 0.0415
-13 0 8 -2.7201 -0.0038
-13 0 9 -3.3430 -0.0319
-13 0 10 -3.7768 -0.0234
-13 1 1 3.0111 0.0282
-13 1 2 3.3503 -0.0370
-13 1 3 3.0825 -0.0791
-13 1 4 2.2482 -0.0742
-13 1 5 1.1034 -0.0260
-13 1 6 -0.0252 0.0374
-13 1 7 -0.8918 0.0805
-13 1 8 -1.4047 0.0805
-13 1 9 -1.6006 0.0375
-13 2 1 -0.6266 0.0910
-13 2 2 0.5525 0.0520
-13 2 3 1.2720 -0.0380
-13 2 4 1.2002 -0.1271
-13 2 5 0.4139 -0.1639
-13 2 6 -0.6583 -0.1290
-13 2 7 -1.4864 -0.0459
-13 2 8 -1.7262 0.0330
-13 3 1 2.1814 0.0168
-13 3 2 2.1051 0.0108
-13 3 3 2.2751 0.0318
-13 3 4 2.4265 0.0699
-13 3 5 2.2778 0.1081
-13 3 6 1.7367 0.1287
-13 3 7 0.9989 0.1204
-13 4 1 -2.3578 -0.0680
-13 4 2 -3.1629 -0.0616
-13 4 3 -3.7048 -0.0404
-12 -10 1 1.8333 0.1240
-12 -10 2 1.5943 0.1130
-12 -10 3 0.9861 0.1107
-12 -10 4 0.2071 0.1253
-12 -9 1 -1.3877 -0.0260
-12 -9 2 -0.8588 -0.0220
-12 -9 3 -0.8218 -0.0158
-12 -9 4 -1.3096 -0.0117
-12 -9 5 -2.0519 -0.0139
-12 -9 6 -2.6123 -0.0216
-12 -8 1 4.1955 0.0773
-12 -8 2 5.2661 0.0256
-12 -8 3 5.1506 -0.0334
-12 -8 4 3.7919 -0.0696
-12 -8 5 1.6118 -0.0683
-12 -8 6 -0.6942 -0.0369
-12 -8 7 -2.4702 0.0023
-12 -8 8 -3.3605 0.0244
-12 -7 1 0.5665 -0.1055
-12 -7 2 -0.7150 -0.0859
-12 -7 3 -1.0745 -0.0692
-12 -7 4 -0.5900 -0.0635
-12 -7 5 0.3586 -0.0713
-12 -7 6 1.2758 -0.0888
-12 -7 7 1.7750 -0.1081
-12 -7 8 1.7354 -0.1188
-12 -7 9 1.3195 -0.1113
-12 -7 10 0.8517 -0.0808
-12 -6 1 1.7345 0.0543
-12 -6 2 1.4011 0.0568
-12 -6 3 1.3507 0.0526
-12 -6 4 1.4937 0.0464
-12 -6 5 1.7181 0.0442
-12 -6 6 1.9171 0.0491
-12 -6 7 1.9913 0.0583
-12 -6 8 1.8579 0.0638
-12 -6 9 1.4839 0.0553
-12 -6 10 0.9218 0.0266
-12 -6 11 0.3093 -0.0212
-12 -5 1 6.2805 -0.0098
-12 -5 2 5.1478 -0.0334
-12 -5 3 3.3944 -0.0430
-12 -5 4 1.6079 -0.0337
-12 -5 5 0.3217 -0.0103
-12 -5 6 -0.2232 0.0149
-12 -5 7 -0.1725 0.0288
-12 -5 8 0.0447 0.0255
-12 -5 9 -0.0336 0.0106
-12 -5 10 -0.6400 -0.0008
-12 -5 11 -1.6508 0.0072
-12 -5 12 -2.6644 0.0412
-12 -4 1 -0.1728 -0.0496
-12 -4 2 -0.8900 -0.0259
-12 -4 3 -0.7017 -0.0098
-12 -4 4 0.2629 -0.0131
-12 -4 5 1.4573 -0.0363
-12 -4 6 2.2284 -0.0687
-12 -4 7 2.1669 -0.0940
-12 -4 8 1.3022 -0.0986
-12 -4 9 0.0510 -0.0788
-12 -4 10 -1.0246 -0.0441
-12 -4 11 -1.4972 -0.0152
-12 -4 12 -1.2438 -0.0166
-12 -4 13 -0.4435 -0.0659
-12 -3 1 -0.4728 -0.0271
-12 -3 2 0.2257 -0.0278
-12 -3 3 0.9041 -0.0332
-12 -3 4 1.3592 -0.0377
-12 -3 5 1.3928 -0.0313
-12 -3 6 0.8996 -0.0083
-12 -3 7 -0.0512 0.0269
-12 -3 8 -1.1954 0.0601
-12 -3 9 -2.1510 0.0753
-12 -3 10 -2.5734 0.0647
-12 -3 11 -2.3152 0.0350
-12 -3 12 -1.5032 0.0044
-12 -3 13 -0.4817 -0.0071
-12 -2 1 1.8648 0.0311
-12 -2 2 -0.0710 0.0573
-12 -2 3 -1.7885 0.0798
-12 -2 4 -2.5853 0.0943
-12 -2 5 -2.2116 0.0935
-12 -2 6 -1.0396 0.0703
-12 -2 7 0.1123 0.0234
-12 -2 8 0.4175 -0.0374
-12 -2 9 -0.5008 -0.0904
-12 -2 10 -2.3574 -0.1099
-12 -2 11 -4.3616 -0.0786
-12 -2 12 -5.6485 0.0003
-12 -2 13 -5.7295 0.0989
-12 -1 1 2.5821 0.0458
-12 -1 2 2.3438 0.0458
-12 -1 3 2.0865 0.0217
-12 -1 4 1.8549 -0.0178
-12 -1 5 1.6357 -0.0550
-12 -1 6 1.3788 -0.0728
-12 -1 7 1.0258 -0.0635
-12 -1 8 0.5385 -0.0329
-12 -1 9 -0.0747 0.0039
-12 -1 10 -0.7363 0.0302
-12 -1 11 -1.3009 0.0361
-12 -1 12 -1.5963 0.0208
-12 -1 13 -1.5009 -0.0100
-12 0 1 -3.1291 0.0322
-12 0 2 -1.6804 0.0559
-12 0 3 -0.6218 0.0403
-12 0 4 -0.2491 -0.0038
-12 0 5 -0.5448 -0.0475
-12 0 6 -1.1780 -0.0612
-12 0 7 -1.6531 -0.0337
-12 0 8 -1.5487 0.0196
-12 0 9 -0.7279 0.0645
-12 0 10 0.5956 0.0696
-12 0 11 1.9730 0.0278
-12 0 12 2.9545 -0.0348
-12 0 13 3.3066 -0.0707
-12 1 1 -1.0853 -0.0231
-12 1 2 -2.1246 -0.0499
-12 1 3 -2.8298 -0.0494
-12 1 4 -3.0838 -0.0245
-12 1 5 -2.9925 0.0094
-12 1 6 -2.8279 0.0352
-12 1 7 -2.8434 0.0445
-12 1 8 -3.0844 0.0408
-12 1 9 -3.3327 0.0349
-12 1 10 -3.2401 0.0338
-12 1 11 -2.5728 0.0344
-12 1 12 -1.4026 0.0242
-12 1 13 -0.1082 -0.0097
-12 2 1 2.5185 -0.0386
-12 2 2 2.8556 -0.0607
-12 2 3 2.8570 -0.0737
-12 2 4 2.4869 -0.0665
-12 2 5 1.8611 -0.0416
-12 2 6 1.1625 -0.0144
-12 2 7 0.5420 -0.0022
-12 2 8 0.0734 -0.0121
-12 2 9 -0.2245 -0.0361
-12 2 10 -0.3394 -0.0585
-12 2 11 -0.2483 -0.0695
-12 2 12 0.0516 -0.0743
-12 3 1 0.9038 0.0675
-12 3 2 1.8368 0.0680
-12 3 3 2.5519 0.0274
-12 3 4 2.6754 -0.0257
-12 3 5 2.1251 -0.0542
-12 3 6 1.1431 -0.0367
-12 3 7 0.1374 0.0182
-12 3 8 -0.5529 0.0770
-12 3 9 -0.8176 0.1020
-12 3 10 -0.7714 0.0736
-12 3 11 -0.6151 0.0009
-12 4 1 2.6803 -0.0297
-12 4 2 2.9782 -0.0559
-12 4 3 3.4434 -0.0592
-12 4 4 3.8069 -0.0413
-12 4 5 3.7796 -0.0106
-12 4 6 3.2609 0.0191
-12 4 7 2.4495 0.0320
-12 4 8 1.7746 0.0164
-12 4 9 1.6758 -0.0295
-12 4 10 2.3512 -0.0940
-12 5 1 -2.6912 -0.0862
-12 5 2 -3.6291 -0.0827
-12 5 3 -4.3530 -0.0620
-12 5 4 -4.4810 -0.0254
-12 5 5 -3.8327 0.0157
-12 5 6 -2.5330 0.0444
-12 5 7 -0.9625 0.0483
-12 5 8 0.4175 0.0266
-12 6 1 -1.1020 0.0003
-12 6 2 -1.4377 0.0066
-12 6 3 -2.1934 -0.0046
-12 6 4 -3.1331 -0.0209
-11 -11 1 -1.5660 -0.0336
-11 -11 2 -2.1369 -0.0358
-11 -11 3 -1.9880 -0.0069
-11 -11 4 -1.5422 0.0435
-11 -11 5 -1.2657 0.0960
-11 -10 1 2.5687 -0.0385
-11 -10 2 2.8960 -0.0933
-11 -10 3 3.1785 -0.1322
-11 -10 4 3.1737 -0.1285
-11 -10 5 2.7844 -0.0738
-11 -10 6 2.0792 0.0162
-11 -10 7 1.2345 0.1079
-11 -9 1 0.3738 0.0810
-11 -9 2 0.6254 0.0696
-11 -9 3 0.2778 0.0454
-11 -9 4 -0.4863 0.0206
-11 -9 5 -1.3240 0.0085
-11 -9 6 -1.8999 0.0161
-11 -9 7 -2.0460 0.0395
-11 -9 8 -1.8255 0.0659
-11 -9 9 -1.4679 0.0793
-11 -8 1 -1.3586 -0.0338
-11 -8 2 -0.1244 -0.0210
-11 -8 3 0.5381 -0.0166
-11 -8 4 0.3819 -0.0266
-11 -8 5 -0.4368 -0.0525
-11 -8 6 -1.4397 -0.0873
-11 -8 7 -2.0903 -0.1153
-11 -8 8 -2.0798 -0.1190
-11 -8 9 -1.4639 -0.0887
-11 -8 10 -0.5816 -0.0287
-11 -8 11 0.1732 0.0429
-11 -7 1 2.9138 0.0700
-11 -7 2 4.4179 0.0461
-11 -7 3 4.8575 0.0039
-11 -7 4 4.0090 -0.0320
-11 -7 5 2.1809 -0.0455
-11 -7 6 0.0554 -0.0363
-11 -7 7 -1.6469 -0.0171
-11 -7 8 -2.4980 -0.0049
-11 -7 9 -2.5185 -0.0110
-11 -7 10 -2.0900 -0.0360
-11 -7 11 -1.6952 -0.0707
-11 -7 12 -1.6424 -0.1023
-11 -6 1 3.2650 -0.0202
-11 -6 2 2.1998 0.0007
-11 -6 3 1.6226 0.0262
-11 -6 4 1.6267 0.0438
-11 -6 5 2.0119 0.0435
-11 -6 6 2.4112 0.0221
-11 -6 7 2.4876 -0.0148
-11 -6 8 2.0965 -0.0530
-11 -6 9 1.3368 -0.0746
-11 -6 10 0.4758 -0.0652
-11 -6 11 -0.1988 -0.0229
-11 -6 12 -0.5134 0.0380
-11 -6 13 -0.4626 0.0906
-11 -5 1 3.5104 0.0174
-11 -5 2 3.8913 0.0119
-11 -5 3 4.1163 0.0093
-11 -5 4 4.1069 0.0137
-11 -5 5 3.8602 0.0286
-11 -5 7 2.8764 0.0852
-11 -5 8 2.2160 0.1117
-11 -5 9 1.4546 0.1222
-11 -5 10 0.6346 0.1092
-11 -5 11 -0.1313 0.0728
-11 -5 12 -0.6939 0.0212
-11 -5 13 -0.9548 -0.0334
-11 -5 14 -0.9424 -0.0800
-11 -4 1 5.2838 -0.0093
-11 -4 2 4.6651 -0.0319
-11 -4 3 3.1608 -0.0511
-11 -4 4 1.3534 -0.0614
-11 -4 5 -0.0733 -0.0628
-11 -4 6 -0.6543 -0.0607
-11 -4 7 -0.3666 -0.0630
-11 -4 8 0.3723 -0.0747
-11 -4 9 0.9425 -0.0931
-11 -4 10 0.8678 -0.1081
-11 -4 11 0.0777 -0.1062
-11 -4 12 -1.0681 -0.0791
-11 -4 13 -2.0020 -0.0295
-11 -4 14 -2.2798 0.0274
-11 -4 15 -1.8196 0.0701
-11 -3 1 1.2788 -0.0765
-11 -3 2 0.9501 -0.0438
-11 -3 3 0.9469 -0.0035
-11 -3 4 1.3626 0.0275
-11 -3 5 1.9858 0.0386
-11 -3 6 2.4581 0.0289
-11 -3 7 2.5005 0.0077
-11 -3 8 2.0661 -0.0109
-11 -3 9 1.3438 -0.0142
-11 -3 10 0.6393 0.0022
-11 -3 11 0.2244 0.0308
-11 -3 12 0.2412 0.0535
-11 -3 13 0.6872 0.0480
-11 -3 14 1.4500 -0.0009
-11 -3 15 2.3487 -0.0924
-11 -2 1 0.2673 -0.0031
-11 -2 2 1.2029 -0.0087
-11 -2 3 1.8414 -0.0190
-11 -2 4 1.9999 -0.0296
-11 -2 5 1.6295 -0.0305
-11 -2 6 0.8296 -0.0135
-11 -2 7 -0.1666 0.0197
-11 -2 8 -1.0440 0.0564
-11 -2 9 -1.4991 0.0783
-11 -2 10 -1.3523 0.0721
-11 -2 11 -0.6330 0.0387
-11 -2 12 0.4152 -0.0060
-11 -2 13 1.4242 -0.0385
-11 -2 14 2.0542 -0.0405
-11 -2 15 2.1362 -0.0090
-11 -1 1 2.0977 0.0107
-11 -1 2 0.7360 0.0374
-11 -1 3 -0.7106 0.0561
-11 -1 4 -1.6998 0.0647
-11 -1 5 -1.8926 0.0625
-11 -1 6 -1.3720 0.0503
-11 -1 7 -0.6204 0.0294
-11 -1 8 -0.2494 0.0035
-11 -1 9 -0.6371 -0.0212
-11 -1 10 -1.6942 -0.0357
-11 -1 11 -2.9114 -0.0323
-11 -1 12 -3.6611 -0.0099
-11 -1 13 -3.5672 0.0225
-11 -1 14 -2.7128 0.0464
-11 -1 15 -1.5647 0.0425
-11 0 1 1.2305 0.0056
-11 0 2 1.3512 0.0182
-11 0 3 1.4689 0.0221
-11 0 4 1.5495 0.0114
-11 0 5 1.5539 -0.0114
-11 0 6 1.4594 -0.0377
-11 0 7 1.2554 -0.0575
-11 0 8 0.9289 -0.0637
-11 0 9 0.4694 -0.0541
-11 0 10 -0.0948 -0.0303
-11 0 11 -0.6551 0.0033
-11 0 12 -1.0227 0.0399
-11 0 13 -0.9998 0.0702
-11 0 14 -0.4954 0.0836
-11 0 15 0.3832 0.0712
-11 1 1 -3.2881 0.0728
-11 1 2 -2.1902 0.0933
-11 1 3 -1.0995 0.0826
-11 1 4 -0.3900 0.0435
-11 1 5 -0.2299 -0.0048
-11 1 6 -0.4983 -0.0369
-11 1 7 -0.8548 -0.0370
-11 1 8 -0.9355 -0.0100
-11 1 9 -0.5689 0.0210
-11 1 10 0.1205 0.0285
-11 1 11 0.7919 -0.0003
-11 1 12 1.1021 -0.0521
-11 1 13 0.9211 -0.0928
-11 1 14 0.4099 -0.0863
-11 1 15 -0.0882 -0.0172
-11 2 1 -1.3635 -0.0444
-11 2 2 -1.8111 -0.0776
-11 2 3 -1.9161 -0.0994
-11 2 4 -1.7028 -0.1050
-11 2 5 -1.3627 -0.0957
-11 2 6 -1.1650 -0.0756
-11 2 7 -1.2831 -0.0477
-11 2 8 -1.6514 -0.0138
-11 2 9 -1.9653 0.0229
-11 2 10 -1.8543 0.0562
-11 2 11 -1.1327 0.0765
-11 2 12 0.0347 0.0754
-11 2 13 1.1754 0.0518
-11 2 14 1.7567 0.0140
-11 2 15 1.4908 -0.0218
-11 3 1 1.6387 -0.0191
-11 3 2 1.6286 0.0005
-11 3 3 1.5535 0.0259
-11 3 4 1.3807 0.0548
-11 3 5 1.1476 0.0796
-11 3 6 0.9139 0.0896
-11 3 7 0.7079 0.0779
-11 3 8 0.5175 0.0487
-11 3 9 0.3313 0.0176
-11 3 10 0.1832 0.0028
-11 3 11 0.1521 0.0122
-11 3 12 0.3036 0.0356
-11 3 13 0.6172 0.0486
-11 3 14 0.9655 0.0272
-11 4 1 2.0818 -0.0066
-11 4 2 2.2503 0.0068
-11 4 3 2.4487 0.0022
-11 4 4 2.4143 -0.0131
-11 4 5 2.0152 -0.0213
-11 4 6 1.3365 -0.0085
-11 4 7 0.6138 0.0247
-11 4 8 0.0757 0.0625
-11 4 9 -0.1846 0.0831
-11 4 10 -0.2245 0.0728
-11 4 11 -0.1592 0.0330
-11 4 12 -0.0489 -0.0213
-11 4 13 0.1395 -0.0719
-11 5 1 3.5111 -0.0720
-11 5 2 3.6392 -0.0920
-11 5 3 3.8498 -0.0941
-11 5 4 3.9666 -0.0767
-11 5 5 3.7786 -0.0426
-11 5 6 3.2101 -0.0003
-11 5 7 2.4267 0.0359
-11 5 8 1.7940 0.0496
-11 5 9 1.6982 0.0295
-11 5 10 2.3286 -0.0227
-11 5 11 3.5492 -0.0896
-11 5 12 4.9370 -0.1449
-11 6 1 -1.0435 -0.0227
-11 6 2 -1.8447 -0.0448
-11 6 3 -2.8298 -0.0516
-11 6 4 -3.5061 -0.0373
-11 6 5 -3.4690 -0.0050
-11 6 6 -2.6168 0.0350
-11 6 7 -1.2096 0.0694
-11 6 8 0.2555 0.0874
-11 6 9 1.2782 0.0857
-11 6 10 1.5701 0.0674
-11 7 1 0.7620 -0.0504
-11 7 2 1.0160 -0.0378
-11 7 3 0.6747 -0.0297
-11 7 4 -0.1711 -0.0248
-11 7 5 -1.1265 -0.0189
-11 7 6 -1.6992 -0.0108
-11 7 7 -1.5695 -0.0063
-10 -12 1 -1.5965 -0.1638
-10 -12 2 -1.9378 -0.1788
-10 -12 3 -1.8799 -0.1418
-10 -12 4 -1.5370 -0.0494
-10 -11 1 -1.3652 0.0341
-10 -11 2 -0.0973 -0.0186
-10 -11 3 1.0620 -0.0741
-10 -11 4 1.6320 -0.1067
-10 -11 5 1.3562 -0.0942
-10 -11 6 0.3408 -0.0314
-10 -11 7 -0.9816 0.0616
-10 -11 8 -2.0509 0.1454
-10 -10 1 0.0008 0.0276
-10 -10 2 -0.3674 0.0404
-10 -10 3 0.0812 0.0584
-10 -10 4 0.8952 0.0733
-10 -10 5 1.4723 0.0749
-10 -10 6 1.3806 0.0601
-10 -10 7 0.5725 0.0374
-10 -10 8 -0.6144 0.0235
-10 -10 9 -1.6531 0.0332
-10 -10 10 -2.0985 0.0682
-10 -9 1 0.8324 0.0508
-10 -9 2 1.5068 0.0225
-10 -9 3 2.2524 -0.0249
-10 -9 4 2.7625 -0.0653
-10 -9 5 2.8499 -0.0785
-10 -9 6 2.5103 -0.0606
-10 -9 7 1.8921 -0.0248
-10 -9 8 1.1987 0.0059
-10 -9 9 0.5831 0.0114
-10 -9 10 0.0915 -0.0159
-10 -9 11 -0.3223 -0.0677
-10 -9 12 -0.7280 -0.1228
-10 -8 1 0.2059 -0.0023
-10 -8 2 1.2826 0.0072
-10 -8 3 1.5562 -0.0015
-10 -8 4 1.1118 -0.0214
-10 -8 5 0.2533 -0.0394
-10 -8 6 -0.6337 -0.0436
-10 -8 7 -1.2515 -0.0296
-10 -8 8 -1.5044 -0.0026
-10 -8 9 -1.5053 0.0258
-10 -8 10 -1.4784 0.0428
-10 -8 11 -1.6184 0.0401
-10 -8 12 -1.9826 0.0153
-10 -8 13 -2.4635 -0.0287
-10 -7 1 -2.2420 -0.0262
-10 -7 2 -0.3711 -0.0091
-10 -7 3 1.1413 0.0051
-10 -7 4 1.8083 0.0060
-10 -7 5 1.5358 -0.0132
-10 -7 6 0.6485 -0.0497
-10 -7 7 -0.3143 -0.0893
-10 -7 8 -0.8987 -0.1121
-10 -7 9 -0.9484 -0.1023
-10 -7 10 -0.6156 -0.0579
-10 -7 11 -0.1946 0.0078
-10 -7 12 0.0906 0.0733
-10 -7 13 0.2018 0.1206
-10 -7 14 0.2501 0.1449
-10 -6 1 0.1746 0.0693
-10 -6 2 1.7260 0.0601
-10 -6 3 2.5746 0.0407
-10 -6 4 2.3756 0.0269
-10 -6 5 1.2787 0.0287
-10 -6 6 -0.1562 0.0451
-10 -6 7 -1.2597 0.0662
-10 -6 8 -1.6061 0.0788
-10 -6 9 -1.2199 0.0741
-10 -6 10 -0.5280 0.0512
-10 -6 11 -0.0916 0.0163
-10 -6 12 -0.2818 -0.0204
-10 -6 13 -1.0832 -0.0498
-10 -6 14 -2.1274 -0.0664
-10 -6 15 -2.9186 -0.0696
-10 -5 1 3.6904 0.0078
-10 -5 2 3.4497 0.0136
-10 -5 3 3.2534 0.0338
-10 -5 4 3.2277 0.0600
-10 -5 5 3.3037 0.0798
-10 -5 6 3.2814 0.0820
-10 -5 7 2.9599 0.0623
-10 -5 8 2.2544 0.0274
-10 -5 9 1.2377 -0.0056
-10 -5 10 0.0948 -0.0165
-10 -5 11 -0.9677 0.0067
-10 -5 12 -1.7980 0.0586
-10 -5 13 -2.3225 0.1155
-10 -5 14 -2.5227 0.1454
-10 -5 15 -2.4027 0.1243
-10 -5 16 -1.9837 0.0513
-10 -4 1 2.6458 -0.0153
-10 -4 2 3.7396 -0.0387
-10 -4 3 4.4509 -0.0588
-10 -4 4 4.5992 -0.0693
-10 -4 6 3.3826 -0.0479
-10 -4 7 2.4096 -0.0198
-10 -4 8 1.4533 0.0094
-10 -4 9 0.6182 0.0293
-10 -4 10 -0.0398 0.0326
-10 -4 11 -0.4659 0.0186
-10 -4 12 -0.6037 -0.0070
-10 -4 13 -0.4492 -0.0350
-10 -4 14 -0.1116 -0.0580
-10 -4 15 0.1888 -0.0743
-10 -4 16 0.2179 -0.0877
-10 -3 1 2.3898 0.0138
-10 -3 2 2.7520 0.0013
-10 -3 3 2.2604 -0.0112
-10 -3 4 1.2289 -0.0215
-10 -3 5 0.2199 -0.0289
-10 -3 6 -0.2363 -0.0344
-10 -3 7 0.0765 -0.0403
-10 -3 8 0.9391 -0.0484
-10 -3 9 1.8219 -0.0583
-10 -3 10 2.1917 -0.0659
-10 -3 11 1.8231 -0.0640
-10 -3 12 0.9226 -0.0459
-10 -3 13 -0.0099 -0.0098
-10 -3 14 -0.4953 0.0375
-10 -3 15 -0.3638 0.0815
-10 -3 16 0.1633 0.1059
-10 -3 17 0.6436 0.1010
-10 -2 1 -0.2777 -0.0546
-10 -2 2 -0.1948 -0.0307
-10 -2 3 -0.0571 0.0095
-10 -2 4 0.2378 0.0531
-10 -2 5 0.6172 0.0864
-10 -2 6 0.9156 0.0999
-10 -2 7 1.0038 0.0920
-10 -2 8 0.8680 0.0695
-10 -2 9 0.5965 0.0451
-10 -2 10 0.3106 0.0320
-10 -2 11 0.1089 0.0377
-10 -2 12 0.0644 0.0591
-10 -2 13 0.2522 0.0823
-10 -2 14 0.7512 0.0886
-10 -2 15 1.5876 0.0642
-10 -2 16 2.6503 0.0081
-10 -2 17 3.6562 -0.0646
-10 -1 1 0.7288 0.0164
-10 -1 2 1.6584 0.0162
-10 -1 3 2.2445 0.0078
-10 -1 4 2.2691 -0.0073
-10 -1 5 1.7071 -0.0208
-10 -1 6 0.7294 -0.0233
-10 -1 7 -0.3489 -0.0114
-10 -1 8 -1.1675 0.0082
-10 -1 9 -1.4436 0.0211
-10 -1 10 -1.0809 0.0137
-10 -1 11 -0.2164 -0.0179
-10 -1 12 0.8248 -0.0635
-10 -1 13 1.6581 -0.1031
-10 -1 14 1.9970 -0.1171
-10 -1 15 1.7653 -0.0973
-10 -1 16 1.1115 -0.0519
-10 -1 17 0.3222 -0.0019
-10 0 1 1.2574 -0.0213
-10 0 2 0.7789 -0.0009
-10 0 3 0.1643 0.0138
-10 0 4 -0.3612 0.0166
-10 0 5 -0.6011 0.0083
-10 0 6 -0.5404 -0.0044
-10 0 7 -0.3827 -0.0129
-10 0 8 -0.4280 -0.0120
-10 0 9 -0.8612 -0.0024
-10 0 10 -1.5955 0.0106
-10 0 11 -2.2912 0.0210
-10 0 12 -2.5530 0.0255
-10 0 13 -2.1865 0.0237
-10 0 14 -1.3432 0.0168
-10 0 15 -0.4506 0.0059
-10 0 16 0.0362 -0.0085
-10 0 17 -0.0940 -0.0239
-10 1 1 1.6825 -0.0206
-10 1 2 1.6716 -0.0100
-10 1 3 1.7512 0.0091
-10 1 4 1.8261 0.0246
-10 1 5 1.7831 0.0272
-10 1 6 1.5593 0.0140
-10 1 7 1.1577 -0.0112
-10 1 8 0.6167 -0.0397
-10 1 9 -0.0262 -0.0608
-10 1 10 -0.7316 -0.0658
-10 1 11 -1.4202 -0.0505
-10 1 12 -1.9399 -0.0186
-10 1 13 -2.0926 0.0186
-10 1 14 -1.7266 0.0445
-10 1 15 -0.8485 0.0443
-10 1 16 0.3274 0.0122
-10 1 17 1.4394 -0.0436
-10 2 1 -1.4427 0.0419
-10 2 2 -0.8913 0.0489
-10 2 3 -0.1345 0.0420
-10 2 4 0.5515 0.0184
-10 2 5 0.9160 -0.0140
-10 2 6 0.8736 -0.0397
-10 2 7 0.5469 -0.0448
-10 2 8 0.1735 -0.0263
-10 2 9 -0.0656 0.0054
-10 2 10 -0.1747 0.0316
-10 2 11 -0.3327 0.0376
-10 2 12 -0.7442 0.0227
-10 2 13 -1.4543 0.0013
-10 2 14 -2.2639 -0.0053
-10 2 15 -2.8153 0.0162
-10 2 16 -2.8017 0.0611
-10 2 17 -2.1643 0.1069
-10 3 1 -0.7116 0.0087
-10 3 2 -0.5597 -0.0067
-10 3 3 -0.1782 -0.0247
-10 3 4 0.3518 -0.0429
-10 3 5 0.8111 -0.0575
-10 3 6 0.9385 -0.0632
-10 3 7 0.5974 -0.0540
-10 3 8 -0.0941 -0.0274
-10 3 9 -0.7771 0.0121
-10 3 10 -1.0338 0.0529
-10 3 11 -0.6435 0.0807
-10 3 12 0.2494 0.0862
-10 3 13 1.1770 0.0710
-10 3 14 1.5948 0.0469
-10 3 15 1.1961 0.0301
-10 3 16 0.1004 0.0315
-10 4 1 0.9889 -0.0076
-10 4 2 0.9068 0.0202
-10 4 3 0.7814 0.0539
-10 4 4 0.6062 0.0867
-10 4 5 0.4443 0.1094
-10 4 6 0.3703 0.1127
-10 4 7 0.4041 0.0930
-10 4 8 0.4941 0.0565
-10 4 9 0.5617 0.0191
-10 4 10 0.5651 -0.0014
-10 4 11 0.5261 0.0050
-10 4 12 0.4947 0.0325
-10 4 13 0.4842 0.0611
-10 4 14 0.4368 0.0685
-10 4 15 0.2583 0.0434
-10 4 16 -0.0969 -0.0057
-10 5 1 1.8380 -0.0417
-10 5 2 1.4431 -0.0309
-10 5 3 1.2468 -0.0227
-10 5 4 1.0748 -0.0205
-10 5 5 0.7778 -0.0206
-10 5 6 0.3491 -0.0163
-10 5 7 -0.0779 -0.0042
-10 5 8 -0.3335 0.0129
-10 5 9 -0.3270 0.0277
-10 5 10 -0.0881 0.0335
-10 5 11 0.2850 0.0279
-10 5 12 0.7139 0.0129
-10 5 13 1.1835 -0.0071
-10 5 14 1.7062 -0.0279
-10 5 15 2.2429 -0.0457
-10 6 1 2.3083 -0.0251
-10 6 2 2.3382 -0.0266
-10 6 3 2.4942 -0.0213
-10 6 4 2.6542 -0.0096
-10 6 5 2.6404 0.0090
-10 6 6 2.3564 0.0345
-10 6 7 1.8889 0.0630
-10 6 8 1.4966 0.0850
-10 6 9 1.4812 0.0894
-10 6 10 2.0139 0.0705
-10 6 11 3.0224 0.0343
-10 6 12 4.2058 -0.0025
-10 6 13 5.1673 -0.0204
-10 7 1 1.1895 0.0520
-10 7 2 1.0371 0.0149
-10 7 3 0.2075 -0.0172
-10 7 4 -0.8201 -0.0361
-10 7 5 -1.4616 -0.0377
-10 7 6 -1.3334 -0.0239
-10 7 7 -0.4478 -0.0014
-10 7 8 0.7997 0.0198
-10 7 9 1.8355 0.0304
-10 7 10 2.1868 0.0257
-10 7 11 1.6930 0.0075
-10 7 12 0.5521 -0.0171
-10 8 1 1.6685 -0.0330
-10 8 2 2.7020 -0.0180
-10 8 3 3.0311 0.0044
-10 8 4 2.4991 0.0297
-10 8 5 1.3838 0.0556
-10 8 6 0.2517 0.0809
-10 8 7 -0.3441 0.1033
-10 8 8 -0.1497 0.1179
-10 8 9 0.6756 0.1188
-10 9 1 1.7286 0.0119
-10 9 2 1.9350 0.0136
-10 9 3 1.9888 0.0094
-9 -13 1 -1.0486 0.0312
-9 -13 2 -1.2235 0.0042
-9 -13 3 -0.8951 -0.0582
-9 -12 1 -0.8106 0.0545
-9 -12 2 -3.1607 0.0758
-9 -12 3 -4.4563 0.0905
-9 -12 4 -4.4397 0.0884
-9 -12 5 -3.4474 0.0563
-9 -12 6 -2.1446 -0.0100
-9 -12 7 -1.1400 -0.0965
-9 -11 1 -2.4992 0.0270
-9 -11 2 -2.6568 0.0159
-9 -11 3 -2.4093 0.0244
-9 -11 4 -1.8847 0.0604
-9 -11 5 -1.3646 0.1137
-9 -11 6 -1.0803 0.1563
-9 -11 7 -1.0500 0.1555
-9 -11 8 -1.0685 0.0944
-9 -11 9 -0.8578 -0.0141
-9 -11 10 -0.2746 -0.1294
-9 -10 1 -2.4189 0.0437
-9 -10 2 -1.0256 0.0438
-9 -10 3 0.4797 0.0155
-9 -10 4 1.6272 -0.0249
-9 -10 5 2.0107 -0.0511
-9 -10 6 1.5039 -0.0432
-9 -10 7 0.3629 -0.0028
-9 -10 8 -0.8648 0.0459
-9 -10 9 -1.5905 0.0689
-9 -10 10 -1.4712 0.0418
-9 -10 11 -0.5764 -0.0348
-9 -10 12 0.6577 -0.1351
-9 -9 1 0.9722 -0.0094
-9 -9 2 1.0552 0.0109
-9 -9 3 2.0182 0.0349
-9 -9 4 3.4768 0.0501
-9 -9 5 4.7686 0.0460
-9 -9 6 5.2727 0.0206
-9 -9 7 4.7058 -0.0161
-9 -9 8 3.2464 -0.0463
-9 -9 9 1.4346 -0.0538
-9 -9 10 -0.0880 -0.0342
-9 -9 11 -0.8582 0.0017
-9 -9 12 -0.7584 0.0337
-9 -9 13 -0.0092 0.0439
-9 -8 1 -0.9275 0.0582
-9 -8 2 -0.3857 0.0563
-9 -8 3 0.3770 0.0300
-9 -8 4 1.0867 -0.0040
-9 -8 5 1.5407 -0.0273
-9 -8 6 1.6827 -0.0289
-9 -8 7 1.5938 -0.0103
-9 -8 8 1.4141 0.0161
-9 -8 9 1.2452 0.0338
-9 -8 10 1.0915 0.0306
-9 -8 11 0.8725 0.0056
-9 -8 12 0.4955 -0.0295
-9 -8 13 -0.0565 -0.0539
-9 -8 14 -0.6795 -0.0464
-9 -7 1 0.7249 -0.0143
-9 -7 2 2.4524 -0.0062
-9 -7 3 3.4301 -0.0097
-9 -7 4 3.5823 -0.0224
-9 -7 5 3.0676 -0.0362
-9 -7 6 2.2052 -0.0417
-9 -7 7 1.3357 -0.0331
-9 -7 8 0.6800 -0.0111
-9 -7 9 0.2639 0.0180
-9 -7 10 -0.0594 0.0450
-9 -7 11 -0.5027 0.0612
-9 -7 12 -1.2099 0.0600
-9 -7 13 -2.1560 0.0372
-9 -7 14 -3.1310 -0.0092
-9 -7 15 -3.8157 -0.0773
-9 -7 16 -3.9205 -0.1605
-9 -6 1 -3.7505 0.0139
-9 -6 2 -2.0594 0.0218
-9 -6 3 -0.3070 0.0372
-9 -6 4 0.9192 0.0505
-9 -6 5 1.2994 0.0499
-9 -6 6 0.9101 0.0289
-9 -6 7 0.1315 -0.0079
-9 -6 8 -0.5909 -0.0457
-9 -6 9 -0.9734 -0.0668
-9 -6 10 -0.9805 -0.0604
-9 -6 11 -0.7501 -0.0290
-9 -6 12 -0.4413 0.0143
-9 -6 13 -0.1265 0.0540
-9 -6 14 0.2083 0.0820
-9 -6 15 0.5828 0.1018
-9 -6 16 0.9455 0.1239
-9 -6 17 1.1745 0.1563
-9 -5 1 -2.0650 0.0179
-9 -5 2 -0.5830 0.0039
-9 -5 3 0.5789 -0.0083
-9 -5 4 1.0084 -0.0078
-9 -5 5 0.6825 0.0105
-9 -5 6 -0.0283 0.0430
-9 -5 7 -0.5775 0.0790
-9 -5 8 -0.5586 0.1059
-9 -5 9 0.0607 0.1148
-9 -5 10 0.9241 0.1032
-9 -5 11 1.4971 0.0747
-9 -5 12 1.3758 0.0369
-9 -5 13 0.5116 -0.0013
-9 -5 14 -0.7706 -0.0321
-9 -5 15 -1.9595 -0.0507
-9 -5 16 -2.6268 -0.0570
-9 -5 17 -2.6233 -0.0554
-9 -4 1 1.9930 -0.0113
-9 -4 2 2.3357 -0.0285
-9 -4 3 2.6023 -0.0348
-9 -4 4 2.8328 -0.0282
-9 -4 5 2.9628 -0.0137
-9 -4 6 2.8651 -0.0020
-9 -4 7 2.4351 -0.0037
-9 -4 8 1.6605 -0.0226
-9 -4 9 0.6303 -0.0510
-9 -4 10 -0.5118 -0.0712
-9 -4 11 -1.6293 -0.0655
-9 -4 12 -2.6236 -0.0269
-9 -4 13 -3.4189 0.0337
-9 -4 14 -3.9273 0.0910
-9 -4 15 -4.0407 0.1179
-9 -4 16 -3.6727 0.1010
-9 -4 17 -2.8329 0.0491
-9 -4 18 -1.6801 -0.0102
-9 -3 1 1.2029 0.0016
-9 -3 2 2.7457 -0.0152
-9 -3 3 3.9316 -0.0325
-9 -3 4 4.4548 -0.0450
-9 -3 5 4.2318 -0.0485
-9 -3 6 3.4140 -0.0421
-9 -3 7 2.2887 -0.0284
-9 -3 8 1.1458 -0.0134
-9 -3 9 0.1920 -0.0034
-9 -3 10 -0.4549 -0.0027
-9 -3 11 -0.7282 -0.0106
-9 -3 12 -0.5957 -0.0225
-9 -3 13 -0.0947 -0.0323
-9 -3 14 0.6118 -0.0365
-9 -3 15 1.2306 -0.0364
-9 -3 16 1.4324 -0.0376
-9 -3 17 1.0188 -0.0463
-9 -3 18 0.0637 -0.0659
-9 -2 1 -1.4815 0.0428
-9 -2 2 -0.2930 0.0365
-9 -2 3 0.4135 0.0321
-9 -2 4 0.5848 0.0270
-9 -2 5 0.4489 0.0193
-9 -2 6 0.3718 0.0100
-9 -2 7 0.6221 0.0017
-9 -2 8 1.1888 -0.0028
-9 -2 9 1.7760 -0.0028
-9 -2 10 1.9916 0.0008
-9 -2 11 1.6126 0.0072
-9 -2 12 0.7521 0.0175
-9 -2 13 -0.1924 0.0344
-9 -2 14 -0.7842 0.0595
-9 -2 15 -0.8299 0.0895
-9 -2 16 -0.5081 0.1159
-9 -2 17 -0.2538 0.1281
-9 -2 18 -0.4707 0.1195
-9 -2 19 -1.2558 0.0923
-9 -1 1 -0.8050 -0.0314
-9 -1 2 -0.7364 -0.0291
-9 -1 3 -0.6115 -0.0143
-9 -1 4 -0.3966 0.0100
-9 -1 5 -0.1781 0.0372
-9 -1 6 -0.0794 0.0586
-9 -1 7 -0.1568 0.0666
-9 -1 8 -0.3635 0.0579
-9 -1 9 -0.6047 0.0357
-9 -1 10 -0.8233 0.0091
-9 -1 11 -1.0328 -0.0105
-9 -1 12 -1.2614 -0.0148
-9 -1 13 -1.4553 -0.0039
-9 -1 14 -1.4397 0.0135
-9 -1 15 -0.9972 0.0247
-9 -1 16 -0.0347 0.0199
-9 -1 17 1.2793 -0.0016
-9 -1 18 2.5208 -0.0308
-9 -1 19 3.1915 -0.0536
-9 0 1 -0.0187 -0.0002
-9 0 2 0.9346 0.0058
-9 0 3 1.6500 0.0050
-9 0 4 1.9186 -0.0047
-9 0 5 1.6723 -0.0193
-9 0 6 1.0049 -0.0311
-9 0 7 0.1496 -0.0339
-9 0 8 -0.5930 -0.0272
-9 0 9 -0.9647 -0.0171
-9 0 10 -0.8605 -0.0123
-9 0 11 -0.3848 -0.0184
-9 0 12 0.1850 -0.0332
-9 0 13 0.5219 -0.0477
-9 0 14 0.4004 -0.0505
-9 0 15 -0.2005 -0.0357
-9 0 16 -1.0972 -0.0065
-9 0 17 -1.9971 0.0245
-9 0 18 -2.6333 0.0419
-9 0 19 -2.8652 0.0351
-9 1 1 1.2069 -0.0072
-9 1 2 1.3423 0.0109
-9 1 3 1.4075 0.0286
-9 1 4 1.3966 0.0332
-9 1 5 1.3235 0.0201
-9 1 6 1.1625 -0.0042
-9 1 7 0.8272 -0.0258
-9 1 8 0.2251 -0.0326
-9 1 9 -0.6403 -0.0219
-9 1 10 -1.5994 -0.0022
-9 1 11 -2.3507 0.0128
-9 1 12 -2.6054 0.0128
-9 1 13 -2.2619 -0.0032
-9 1 14 -1.4949 -0.0260
-9 1 15 -0.6882 -0.0429
-9 1 16 -0.2355 -0.0448
-9 1 17 -0.3246 -0.0306
-9 1 18 -0.8362 -0.0062
-9 1 19 -1.4202 0.0194
-9 2 1 3.2641 -0.0552
-9 2 2 3.1551 -0.0547
-9 2 3 3.1191 -0.0362
-9 2 4 3.0567 -0.0090
-9 2 5 2.8249 0.0155
-9 2 6 2.3405 0.0280
-9 2 7 1.6283 0.0251
-9 2 8 0.7911 0.0094
-9 2 9 -0.0634 -0.0111
-9 2 10 -0.8729 -0.0268
-9 2 11 -1.6129 -0.0299
-9 2 12 -2.2459 -0.0187
-9 2 13 -2.6809 0.0012
-9 2 14 -2.7897 0.0181
-9 2 15 -2.4794 0.0196
-9 2 16 -1.7729 -0.0004
-9 2 17 -0.8355 -0.0369
-9 2 18 0.0790 -0.0746
-9 3 1 -0.0038 0.0078
-9 3 2 0.1439 0.0074
-9 3 3 0.5443 0.0093
-9 3 4 1.0981 0.0083
-9 3 5 1.5674 0.0017
-9 3 6 1.7238 -0.0078
-9 3 7 1.4858 -0.0134
-9 3 8 0.9505 -0.0092
-9 3 9 0.3013 0.0057
-9 3 10 -0.3272 0.0258
-9 3 11 -0.9225 0.0428
-9 3 12 -1.5485 0.0501
-9 3 13 -2.2241 0.0470
-9 3 14 -2.8294 0.0380
-9 3 15 -3.1270 0.0285
-9 3 16 -2.8984 0.0204
-9 3 17 -2.1061 0.0100
-9 3 18 -0.9625 -0.0093
-9 4 1 0.0114 0.0429
-9 4 2 0.6910 0.0515
-9 4 3 1.4268 0.0543
-9 4 4 2.1417 0.0463
-9 4 5 2.6541 0.0269
-9 4 6 2.7386 0.0019
-9 4 7 2.2678 -0.0187
-9 4 8 1.3406 -0.0257
-9 4 9 0.2928 -0.0176
-9 4 10 -0.4483 -0.0017
-9 4 11 -0.5958 0.0098
-9 4 12 -0.1799 0.0082
-9 4 13 0.4518 -0.0059
-9 4 14 0.8273 -0.0223
-9 4 15 0.6269 -0.0287
-9 4 16 -0.1231 -0.0194
-9 4 17 -1.0623 -0.0015
-9 5 1 -0.0079 -0.0180
-9 5 2 0.4436 -0.0099
-9 5 3 0.7021 0.0008
-9 5 4 0.6815 0.0114
-9 5 5 0.4639 0.0176
-9 5 6 0.2256 0.0146
-9 5 7 0.1158 -0.0004
-9 5 8 0.1735 -0.0251
-9 5 9 0.3265 -0.0511
-9 5 10 0.4574 -0.0673
-9 5 11 0.4743 -0.0650
-9 5 12 0.3412 -0.0434
-9 5 13 0.0596 -0.0105
-9 5 14 -0.3619 0.0215
-9 5 15 -0.9106 0.0434
-9 5 16 -1.5407 0.0548
-9 5 17 -2.1436 0.0635
-9 6 1 -0.4081 0.0014
-9 6 2 -0.8095 0.0089
-9 6 3 -0.8089 0.0158
-9 6 4 -0.6367 0.0167
-9 6 5 -0.5533 0.0104
-9 6 6 -0.6829 0.0006
-9 6 7 -0.9568 -0.0069
-9 6 8 -1.1832 -0.0070
-9 6 9 -1.1801 0.0021
-9 6 10 -0.8751 0.0188
-9 6 11 -0.3159 0.0381
-9 6 12 0.3903 0.0532
-9 6 13 1.1453 0.0581
-9 6 14 1.8809 0.0501
-9 6 15 2.5281 0.0332
-9 6 16 2.9807 0.0180
-9 7 1 -1.0122 0.0311
-9 7 2 -0.8474 0.0455
-9 7 3 -0.3092 0.0536
-9 7 4 0.4467 0.0493
-9 7 5 1.1628 0.0332
-9 7 6 1.6177 0.0124
-9 7 7 1.7514 -0.0033
-9 7 8 1.6958 -0.0083
-9 7 9 1.6895 -0.0041
-9 7 10 1.9313 0.0037
-9 7 11 2.4626 0.0110
-9 7 12 3.1469 0.0197
-9 7 13 3.7499 0.0359
-9 7 14 4.0608 0.0646
-9 8 1 2.4242 0.0610
-9 8 2 2.7951 0.0513
-9 8 3 2.2850 0.0381
-9 8 4 1.2190 0.0223
-9 8 5 0.1805 0.0066
-9 8 6 -0.2994 -0.0053
-9 8 7 -0.0198 -0.0110
-9 8 8 0.7906 -0.0113
-9 8 9 1.5998 -0.0112
-9 8 10 1.8515 -0.0161
-9 8 11 1.2492 -0.0283
-9 8 12 -0.0975 -0.0438
-9 9 1 0.3331 -0.0851
-9 9 2 1.4442 -0.0745
-9 9 3 1.9927 -0.0472
-9 9 4 1.6578 -0.0107
-9 9 5 0.5598 0.0268
-9 9 6 -0.7895 0.0595
-9 9 7 -1.7464 0.0849
-9 9 8 -1.8640 0.1028
-9 9 9 -1.1142 0.1135
-9 9 10 0.1139 0.1160
-9 10 1 0.4987 -0.0267
-9 10 2 0.8415 -0.0187
-9 10 3 1.3185 -0.0167
-9 10 4 1.4609 -0.0275
-9 10 5 0.9540 -0.0499
-8 -13 1 0.7709 -0.0522
-8 -13 2 1.0413 -0.0797
-8 -13 3 1.6105 -0.0850
-8 -13 4 2.3754 -0.0409
-8 -13 5 2.9355 0.0550
-8 -13 6 2.8808 0.1690
-8 -12 1 -3.0583 0.0528
-8 -12 2 -3.6949 0.0904
-8 -12 3 -3.7187 0.0893
-8 -12 4 -3.1252 0.0487
-8 -12 5 -2.2483 -0.0066
-8 -12 6 -1.5728 -0.0424
-8 -12 7 -1.4521 -0.0402
-8 -12 8 -1.9030 -0.0111
-8 -12 9 -2.6008 0.0091
-8 -11 1 1.6791 -0.0443
-8 -11 2 -0.1072 -0.0286
-8 -11 3 -1.3309 -0.0013
-8 -11 4 -1.5227 0.0241
-8 -11 5 -0.7704 0.0333
-8 -11 6 0.3958 0.0198
-8 -11 7 1.3273 -0.0088
-8 -11 8 1.5963 -0.0335
-8 -11 9 1.1669 -0.0344
-8 -11 10 0.3344 -0.0054
-8 -11 11 -0.4926 0.0382
-8 -10 1 -3.7566 0.0276
-8 -10 2 -3.7948 0.0226
-8 -10 3 -3.3829 0.0208
-8 -10 4 -2.6511 0.0297
-8 -10 5 -1.9171 0.0481
-8 -10 6 -1.4834 0.0633
-8 -10 7 -1.4332 0.0574
-8 -10 8 -1.5676 0.0198
-8 -10 9 -1.5302 -0.0422
-8 -10 10 -1.0449 -0.1034
-8 -10 11 -0.1123 -0.1318
-8 -10 12 0.9674 -0.1043
-8 -10 13 1.7619 -0.0189
-8 -9 1 -1.7700 0.0011
-8 -9 2 -0.3988 0.0260
-8 -9 3 1.3399 0.0205
-8 -9 4 3.0789 -0.0111
-8 -9 5 4.3255 -0.0479
-8 -9 6 4.6954 -0.0664
-8 -9 7 4.1340 -0.0554
-8 -9 8 2.9822 -0.0239
-8 -9 9 1.8251 0.0051
-8 -9 10 1.1928 0.0100
-8 -9 11 1.2791 -0.0163
-8 -9 12 1.8456 -0.0619
-8 -9 13 2.3720 -0.1058
-8 -9 14 2.3674 -0.1311
-8 -8 1 0.0280 -0.0113
-8 -8 2 0.0856 -0.0006
-8 -8 3 1.0552 0.0196
-8 -8 4 2.7447 0.0391
-8 -8 5 4.5972 0.0473
-8 -8 6 5.9154 0.0393
-8 -8 7 6.1645 0.0194
-8 -8 8 5.2077 -0.0004
-8 -8 9 3.3608 -0.0077
-8 -8 10 1.2432 0.0033
-8 -8 11 -0.4939 0.0276
-8 -8 12 -1.4289 0.0514
-8 -8 13 -1.5016 0.0606
-8 -8 14 -0.9723 0.0483
-8 -8 15 -0.2542 0.0193
-8 -8 16 0.2840 -0.0133
-8 -7 1 -1.1009 0.0440
-8 -7 2 -0.7450 0.0448
-8 -7 3 -0.1502 0.0287
-8 -7 4 0.4901 0.0040
-8 -7 5 1.0239 -0.0169
-8 -7 6 1.3944 -0.0234
-8 -7 7 1.6326 -0.0122
-8 -7 8 1.8031 0.0112
-8 -7 9 1.9387 0.0347
-8 -7 10 2.0048 0.0451
-8 -7 11 1.9135 0.0349
-8 -7 12 1.5811 0.0082
-8 -7 13 0.9969 -0.0191
-8 -7 14 0.2657 -0.0252
-8 -7 15 -0.4086 0.0071
-8 -7 16 -0.7981 0.0793
-8 -7 17 -0.7561 0.1723
-8 -6 1 -0.3066 0.0341
-8 -6 2 1.2965 0.0291
-8 -6 3 2.5096 0.0178
-8 -6 4 3.1316 0.0014
-8 -6 5 3.1428 -0.0162
-8 -6 6 2.7079 -0.0300
-8 -6 7 2.0960 -0.0362
-8 -6 8 1.5525 -0.0338
-8 -6 9 1.1841 -0.0245
-8 -6 10 0.9150 -0.0110
-8 -6 11 0.5400 0.0032
-8 -6 12 -0.1497 0.0140
-8 -6 13 -1.2257 0.0159
-8 -6 14 -2.5395 0.0029
-8 -6 15 -3.7450 -0.0304
-8 -6 16 -4.4264 -0.0847
-8 -6 17 -4.2822 -0.1541
-8 -6 18 -3.2799 -0.2263
-8 -5 1 -4.6016 0.0015
-8 -5 2 -3.4330 0.0011
-8 -5 3 -1.8959 0.0141
-8 -5 4 -0.4990 0.0378
-8 -5 5 0.3503 0.0610
-8 -5 6 0.5257 0.0698
-8 -5 7 0.1927 0.0566
-8 -5 8 -0.3291 0.0248
-8 -5 9 -0.7471 -0.0125
-8 -5 10 -0.9071 -0.0405
-8 -5 11 -0.7907 -0.0502
-8 -5 12 -0.4424 -0.0426
-8 -5 13 0.0922 -0.0256
-8 -5 14 0.7656 -0.0066
-8 -5 15 1.4842 0.0126
-8 -5 16 2.0833 0.0366
-8 -5 17 2.3704 0.0709
-8 -5 18 2.2265 0.1147
-8 -4 1 -3.5554 -0.0356
-8 -4 2 -2.1662 -0.0602
-8 -4 3 -0.7792 -0.0805
-8 -4 4 0.1782 -0.0868
-8 -4 5 0.5229 -0.0746
-8 -4 6 0.3950 -0.0464
-8 -4 7 0.1544 -0.0101
-8 -4 8 0.1524 0.0241
-8 -4 9 0.5166 0.0481
-8 -4 10 1.0783 0.0568
-8 -4 11 1.4844 0.0489
-8 -4 12 1.4177 0.0268
-8 -4 13 0.7895 -0.0040
-8 -4 14 -0.2112 -0.0348
-8 -4 15 -1.2302 -0.0570
-8 -4 16 -1.9415 -0.0659
-8 -4 17 -2.2008 -0.0635
-8 -4 18 -2.0771 -0.0589
-8 -4 19 -1.7653 -0.0635
-8 -3 1 1.0713 0.0251
-8 -3 2 1.4774 0.0062
-8 -3 3 1.9583 -0.0164
-8 -3 4 2.4606 -0.0342
-8 -3 5 2.8491 -0.0418
-8 -3 6 2.9607 -0.0406
-8 -3 7 2.6870 -0.0387
-8 -3 8 2.0299 -0.0447
-8 -3 9 1.0949 -0.0613
-8 -3 10 0.0329 -0.0817
-8 -3 11 -1.0243 -0.0919
-8 -3 12 -1.9885 -0.0799
-8 -3 13 -2.7903 -0.0436
-8 -3 14 -3.3386 0.0066
-8 -3 15 -3.5105 0.0530
-8 -3 16 -3.1982 0.0812
-8 -3 17 -2.3896 0.0884
-8 -3 18 -1.2273 0.0850
-8 -3 19 0.0060 0.0871
-8 -2 1 -0.9649 0.0204
-8 -2 2 0.8661 0.0229
-8 -2 3 2.5423 0.0246
-8 -2 4 3.6963 0.0277
-8 -2 5 4.1381 0.0335
-8 -2 6 3.8993 0.0412
-8 -2 7 3.1689 0.0479
-8 -2 8 2.1813 0.0500
-8 -2 9 1.1350 0.0449
-8 -2 10 0.1822 0.0335
-8 -2 11 -0.5369 0.0199
-8 -2 12 -0.8793 0.0095
-8 -2 13 -0.7514 0.0057
-8 -2 14 -0.2042 0.0075
-8 -2 15 0.5052 0.0094
-8 -2 16 0.9673 0.0045
-8 -2 17 0.7988 -0.0117
-8 -2 18 -0.1381 -0.0381
-8 -2 19 -1.6101 -0.0682
-8 -2 20 -3.0787 -0.0929
-8 -1 1 -3.1601 0.0104
-8 -1 2 -1.7740 0.0099
-8 -1 3 -0.3979 0.0158
-8 -1 4 0.6867 0.0209
-8 -1 5 1.3937 0.0187
-8 -1 6 1.8282 0.0080
-8 -1 7 2.1566 -0.0064
-8 -1 8 2.4405 -0.0169
-8 -1 9 2.5590 -0.0191
-8 -1 10 2.2850 -0.0145
-8 -1 11 1.4748 -0.0090
-8 -1 12 0.2345 -0.0080
-8 -1 13 -1.0670 -0.0114
-8 -1 14 -1.9743 -0.0138
-8 -1 15 -2.2101 -0.0083
-8 -1 16 -1.8588 0.0073
-8 -1 17 -1.3362 0.0279
-8 -1 18 -1.1514 0.0436
-8 -1 19 -1.6003 0.0460
-8 -1 20 -2.5824 0.0340
-8 0 1 -0.4700 -0.0112
-8 0 2 -0.4197 -0.0255
-8 0 3 -0.2326 -0.0392
-8 0 4 0.0820 -0.0470
-8 0 5 0.3850 -0.0447
-8 0 6 0.5170 -0.0311
-8 0 7 0.4214 -0.0104
-8 0 8 0.1815 0.0098
-8 0 9 -0.0622 0.0216
-8 0 10 -0.2431 0.0212
-8 0 11 -0.4358 0.0105
-8 0 12 -0.7917 -0.0040
-8 0 13 -1.3817 -0.0153
-8 0 14 -2.0694 -0.0195
-8 0 15 -2.5285 -0.0175
-8 0 16 -2.4181 -0.0131
-8 0 17 -1.6142 -0.0100
-8 0 18 -0.3367 -0.0086
-8 0 19 0.9263 -0.0066
-8 0 20 1.6665 -0.0004
-8 1 1 -1.4846 -0.0159
-8 1 2 -0.5866 -0.0106
-8 1 3 0.2489 -0.0049
-8 1 4 0.9032 -0.0029
-8 1 5 1.2876 -0.0062
-8 1 6 1.3605 -0.0131
-8 1 7 1.1566 -0.0204
-8 1 8 0.7973 -0.0248
-8 1 9 0.4525 -0.0248
-8 1 10 0.2579 -0.0202
-8 1 11 0.2334 -0.0116
-8 1 12 0.2600 0.0006
-8 1 13 0.1409 0.0162
-8 1 14 -0.2851 0.0340
-8 1 15 -1.0446 0.0515
-8 1 16 -2.0047 0.0649
-8 1 17 -2.9355 0.0701
-8 1 18 -3.6162 0.0639
-8 1 19 -3.9209 0.0462
-8 1 20 -3.8414 0.0205
-8 2 1 1.9022 -0.0027
-8 2 2 2.2887 0.0156
-8 2 3 2.6415 0.0419
-8 2 4 2.8969 0.0607
-8 2 5 2.9939 0.0603
-8 2 6 2.8584 0.0405
-8 2 7 2.4069 0.0130
-8 2 8 1.5906 -0.0068
-8 2 9 0.4596 -0.0100
-8 2 10 -0.8010 0.0007
-8 2 11 -1.9087 0.0130
-8 2 12 -2.5939 0.0139
-8 2 13 -2.7305 -0.0008
-8 2 14 -2.4054 -0.0239
-8 2 15 -1.8787 -0.0411
-8 2 16 -1.4479 -0.0412
-8 2 17 -1.2932 -0.0230
-8 2 18 -1.3936 0.0031
-8 2 19 -1.5618 0.0212
-8 2 20 -1.5724 0.0194
-8 3 1 2.7942 -0.0410
-8 3 2 2.9056 -0.0516
-8 3 3 3.0364 -0.0512
-8 3 4 3.0662 -0.0415
-8 3 5 2.8373 -0.0270
-8 3 6 2.2709 -0.0127
-8 3 7 1.4324 -0.0024
-8 3 8 0.5028 0.0021
-8 3 9 -0.3235 0.0017
-8 3 10 -0.9436 -0.0006
-8 3 11 -1.3855 -0.0009
-8 3 12 -1.7606 0.0038
-8 3 13 -2.1670 0.0135
-8 3 14 -2.6096 0.0245
-8 3 15 -2.9883 0.0315
-8 3 16 -3.1572 0.0303
-8 3 17 -3.0151 0.0222
-8 3 18 -2.5687 0.0139
-8 3 19 -1.9343 0.0149
-8 4 1 -0.3583 -0.0187
-8 4 2 -0.3552 -0.0171
-8 4 3 -0.0121 -0.0044
-8 4 4 0.6909 0.0137
-8 4 5 1.5269 0.0289
-8 4 6 2.1460 0.0344
-8 4 7 2.2726 0.0283
-8 4 8 1.8495 0.0141
-8 4 9 1.0432 -0.0016
-8 4 10 0.1276 -0.0126
-8 4 11 -0.6623 -0.0162
-8 4 12 -1.2076 -0.0145
-8 4 13 -1.4829 -0.0132
-8 4 14 -1.4819 -0.0186
-8 4 15 -1.1700 -0.0347
-8 4 16 -0.5120 -0.0608
-8 4 17 0.4496 -0.0925
-8 4 18 1.5392 -0.1226
-8 4 19 2.4750 -0.1445
-8 5 1 -0.4574 -0.0061
-8 5 2 0.4970 0.0142
-8 5 3 1.4234 0.0360
-8 5 4 2.2532 0.0487
-8 5 5 2.8557 0.0445
-8 5 6 3.0520 0.0234
-8 5 7 2.7124 -0.0065
-8 5 8 1.8714 -0.0339
-8 5 9 0.7711 -0.0512
-8 5 10 -0.2215 -0.0587
-8 5 11 -0.7902 -0.0623
-8 5 12 -0.8348 -0.0675
-8 5 13 -0.5183 -0.0737
-8 5 14 -0.1597 -0.0739
-8 5 15 -0.0369 -0.0603
-8 5 16 -0.2212 -0.0327
-8 5 17 -0.5460 -0.0021
-8 5 18 -0.7270 0.0132
-8 6 1 -0.5772 -0.0020
-8 6 2 0.4388 -0.0054
-8 6 3 1.1943 -0.0115
-8 6 4 1.4194 -0.0186
-8 6 5 1.1176 -0.0246
-8 6 6 0.5201 -0.0285
-8 6 7 -0.0699 -0.0306
-8 6 8 -0.4430 -0.0322
-8 6 9 -0.5672 -0.0346
-8 6 10 -0.5625 -0.0382
-8 6 11 -0.6036 -0.0419
-8 6 12 -0.8185 -0.0433
-8 6 13 -1.2353 -0.0397
-8 6 14 -1.7855 -0.0280
-8 6 15 -2.3440 -0.0064
-8 6 16 -2.7761 0.0255
-8 6 17 -2.9763 0.0659
-8 7 1 -2.4010 0.0360
-8 7 2 -2.6502 0.0353
-8 7 3 -2.2699 0.0298
-8 7 4 -1.5823 0.0164
-8 7 5 -0.9974 -0.0050
-8 7 6 -0.7942 -0.0307
-8 7 7 -0.9943 -0.0537
-8 7 8 -1.3878 -0.0661
-8 7 9 -1.6790 -0.0621
-8 7 10 -1.6525 -0.0413
-8 7 11 -1.2646 -0.0097
-8 7 12 -0.6252 0.0217
-8 7 13 0.0937 0.0412
-8 7 14 0.7505 0.0421
-8 7 15 1.2744 0.0281
-8 7 16 1.6459 0.0128
-8 8 1 -3.0659 0.0278
-8 8 2 -2.8600 0.0563
-8 8 3 -2.0504 0.0750
-8 8 4 -0.8257 0.0731
-8 8 5 0.4555 0.0472
-8 8 6 1.4182 0.0044
-8 8 7 1.8419 -0.0403
-8 8 8 1.7491 -0.0722
-8 8 9 1.3641 -0.0832
-8 8 10 0.9738 -0.0745
-8 8 11 0.7782 -0.0540
-8 8 12 0.8129 -0.0299
-8 8 13 0.9744 -0.0071
-8 8 14 1.1122 0.0134
-8 8 15 1.1206 0.0314
-8 9 1 1.7619 -0.0277
-8 9 2 2.1202 -0.0043
-8 9 3 1.8072 0.0167
-8 9 4 0.9522 0.0256
-8 9 5 -0.0288 0.0185
-8 9 6 -0.6611 -0.0005
-8 9 7 -0.6765 -0.0207
-8 9 8 -0.1714 -0.0320
-8 9 9 0.4320 -0.0307
-8 9 10 0.6045 -0.0216
-8 9 11 -0.0060 -0.0134
-8 9 12 -1.3726 -0.0120
-8 9 13 -3.0761 -0.0160
-8 10 1 -0.9487 -0.0837
-8 10 2 -0.5185 -0.0827
-8 10 3 -0.3976 -0.0649
-8 10 4 -0.8517 -0.0381
-8 10 5 -1.8419 -0.0137
-8 10 6 -2.9989 -0.0013
-8 10 7 -3.7795 -0.0040
-8 10 8 -3.7360 -0.0173
-8 10 9 -2.7581 -0.0317
-8 10 10 -1.1523 -0.0387
-8 11 1 -0.7223 -0.0249
-8 11 2 -0.6281 -0.0087
-8 11 3 -0.2352 0.0138
-8 11 4 0.1509 0.0346
-8 11 5 0.1848 0.0463
-7 -14 1 -3.7521 0.0464
-7 -14 2 -2.4826 0.0930
-7 -14 3 -1.5528 0.1025
-7 -13 1 2.3532 -0.0168
-7 -13 2 1.7513 -0.0301
-7 -13 3 1.3126 -0.0498
-7 -13 4 1.1781 -0.0766
-7 -13 5 1.2824 -0.1118
-7 -13 6 1.4452 -0.1552
-7 -13 7 1.5137 -0.1993
-7 -12 1 -1.9524 -0.0239
-7 -12 2 -1.6719 -0.0495
-7 -12 3 -0.9602 -0.0568
-7 -12 4 0.1098 -0.0247
-7 -12 5 1.0755 0.0500
-7 -12 6 1.3782 0.1405
-7 -12 7 0.7517 0.1991
-7 -12 8 -0.5518 0.1831
-7 -12 9 -1.8588 0.0858
-7 -12 10 -2.4428 -0.0520
-7 -11 1 -2.5112 0.0010
-7 -11 2 -3.1269 0.0612
-7 -11 3 -3.2257 0.0961
-7 -11 4 -2.5250 0.0923
-7 -11 5 -1.1912 0.0633
-7 -11 6 0.2219 0.0372
-7 -11 7 1.0763 0.0342
-7 -11 8 1.0145 0.0490
-7 -11 9 0.1619 0.0533
-7 -11 10 -0.9536 0.0163
-7 -11 11 -1.7106 -0.0688
-7 -11 12 -1.7401 -0.1732
-7 -10 1 0.8914 -0.0766
-7 -10 2 -0.0292 -0.0851
-7 -10 3 -0.8007 -0.0747
-7 -10 4 -0.8668 -0.0541
-7 -10 5 -0.0657 -0.0329
-7 -10 6 1.2968 -0.0157
-7 -10 7 2.6211 0.0008
-7 -10 8 3.3271 0.0251
-7 -10 9 3.1320 0.0622
-7 -10 10 2.1501 0.1067
-7 -10 11 0.7852 0.1408
-7 -10 12 -0.4969 0.1402
-7 -10 13 -1.3773 0.0873
-7 -10 14 -1.7721 -0.0185
-7 -9 1 -3.6247 -0.0069
-7 -9 2 -3.5931 -0.0118
-7 -9 3 -3.0473 -0.0207
-7 -9 4 -2.1048 -0.0279
-7 -9 5 -1.0804 -0.0298
-7 -9 6 -0.3297 -0.0290
-7 -9 7 -0.0489 -0.0325
-7 -9 8 -0.1611 -0.0459
-7 -9 9 -0.3677 -0.0676
-7 -9 10 -0.3390 -0.0869
-7 -9 11 0.0744 -0.0888
-7 -9 12 0.7458 -0.0616
-7 -9 13 1.3546 -0.0023
-7 -9 14 1.5945 0.0826
-7 -9 15 1.3728 0.1803
-7 -8 1 -2.4344 0.0251
-7 -8 2 -1.7642 0.0522
-7 -8 3 -0.4792 0.0573
-7 -8 4 1.2611 0.0375
-7 -8 5 3.0279 0.0055
-7 -8 6 4.2969 -0.0191
-7 -8 7 4.7122 -0.0219
-7 -8 8 4.2800 -0.0027
-7 -8 9 3.3622 0.0259
-7 -8 10 2.4595 0.0477
-7 -8 11 1.9123 0.0532
-7 -8 12 1.7043 0.0443
-7 -8 13 1.4983 0.0297
-7 -8 14 0.8868 0.0160
-7 -8 15 -0.3019 0.0017
-7 -8 16 -1.8397 -0.0210
-7 -8 17 -3.1887 -0.0587
-7 -7 1 -1.3628 -0.0243
-7 -7 2 -1.5149 -0.0241
-7 -7 3 -0.9342 -0.0177
-7 -7 4 0.4119 -0.0075
-7 -7 5 2.2264 0.0012
-7 -7 6 3.9520 0.0036
-7 -7 7 4.9802 -0.0007
-7 -7 8 4.9094 -0.0076
-7 -7 9 3.7258 -0.0103
-7 -7 10 1.8125 -0.0042
-7 -7 11 -0.2209 0.0099
-7 -7 12 -1.8030 0.0252
-7 -7 13 -2.6262 0.0322
-7 -7 14 -2.7267 0.0240
-7 -7 15 -2.3936 -0.0002
-7 -7 16 -1.9756 -0.0338
-7 -7 17 -1.7007 -0.0656
-7 -7 18 -1.6011 -0.0849
-7 -6 1 -1.6447 0.0348
-7 -6 2 -1.1909 0.0304
-7 -6 3 -0.5577 0.0167
-7 -6 4 0.1031 -0.0040
-7 -6 5 0.6833 -0.0255
-7 -6 6 1.1411 -0.0405
-7 -6 7 1.4819 -0.0436
-7 -6 8 1.7186 -0.0345
-7 -6 9 1.8439 -0.0193
-7 -6 10 1.8288 -0.0084
-7 -6 11 1.6414 -0.0114
-7 -6 12 1.2714 -0.0311
-7 -6 13 0.7465 -0.0591
-7 -6 14 0.1384 -0.0770
-7 -6 15 -0.4401 -0.0656
-7 -6 16 -0.8492 -0.0160
-7 -6 17 -0.9543 0.0618
-7 -6 18 -0.6767 0.1404
-7 -6 19 -0.0460 0.1874
-7 -5 1 -2.5641 0.0304
-7 -5 2 -1.5458 0.0290
-7 -5 3 -0.4359 0.0269
-7 -5 4 0.5098 0.0240
-7 -5 5 1.1203 0.0201
-7 -5 6 1.3814 0.0151
-7 -5 7 1.4247 0.0085
-7 -5 8 1.4392 0.0001
-7 -5 9 1.5500 -0.0092
-7 -5 10 1.7358 -0.0168
-7 -5 11 1.8303 -0.0190
-7 -5 12 1.6142 -0.0136
-7 -5 13 0.9491 -0.0020
-7 -5 14 -0.1144 0.0102
-7 -5 15 -1.3144 0.0144
-7 -5 16 -2.2613 0.0029
-7 -5 17 -2.5940 -0.0272
-7 -5 18 -2.1423 -0.0724
-7 -5 19 -1.0170 -0.1232
-7 -4 1 -5.8757 -0.0267
-7 -4 2 -5.0587 -0.0414
-7 -4 3 -3.7058 -0.0445
-7 -4 4 -2.1689 -0.0281
-7 -4 5 -0.8335 0.0039
-7 -4 6 0.0493 0.0379
-7 -4 7 0.4336 0.0582
-7 -4 8 0.4346 0.0557
-7 -4 9 0.2276 0.0323
-7 -4 10 -0.0306 -0.0007
-7 -4 11 -0.2191 -0.0298
-7 -4 12 -0.2334 -0.0463
-7 -4 13 0.0154 -0.0486
-7 -4 14 0.5534 -0.0408
-7 -4 15 1.2796 -0.0275
-7 -4 16 1.9497 -0.0106
-7 -4 17 2.2573 0.0108
-7 -4 18 1.9890 0.0370
-7 -4 19 1.1640 0.0640
-7 -4 20 0.0622 0.0836
-7 -3 1 -3.8209 -0.0184
-7 -3 2 -2.8613 -0.0372
-7 -3 3 -1.6311 -0.0575
-7 -3 4 -0.4884 -0.0720
-7 -3 5 0.2975 -0.0765
-7 -3 6 0.6595 -0.0701
-7 -3 7 0.7272 -0.0550
-7 -3 8 0.7097 -0.0340
-7 -3 9 0.7472 -0.0104
-7 -3 10 0.8275 0.0114
-7 -3 11 0.8184 0.0254
-7 -3 12 0.5847 0.0259
-7 -3 13 0.1021 0.0111
-7 -3 14 -0.5120 -0.0140
-7 -3 15 -1.0669 -0.0389
-7 -3 16 -1.4145 -0.0530
-7 -3 17 -1.5281 -0.0526
-7 -3 18 -1.4931 -0.0445
-7 -3 19 -1.4262 -0.0434
-7 -3 20 -1.3872 -0.0628
-7 -2 1 0.2178 0.0784
-7 -2 2 0.4816 0.0804
-7 -2 3 1.0724 0.0667
-7 -2 4 1.8968 0.0427
-7 -2 5 2.7520 0.0186
-7 -2 6 3.3964 0.0027
-7 -2 7 3.6456 -0.0030
-7 -2 8 3.4395 -0.0032
-7 -2 9 2.8444 -0.0049
-7 -2 10 1.9979 -0.0115
-7 -2 11 1.0421 -0.0211
-7 -2 12 0.0889 -0.0278
-7 -2 13 -0.7708 -0.0267
-7 -2 14 -1.4381 -0.0170
-7 -2 15 -1.7999 -0.0019
-7 -2 16 -1.7659 0.0152
-7 -2 17 -1.3292 0.0337
-7 -2 18 -0.6060 0.0565
-7 -2 19 0.1852 0.0863
-7 -2 20 0.8057 0.1212
-7 -2 21 1.0983 0.1528
-7 -1 1 -2.7244 -0.0142
-7 -1 2 -1.0182 -0.0063
-7 -1 3 0.7779 0.0039
-7 -1 4 2.3438 0.0167
-7 -1 5 3.4633 0.0316
-7 -1 6 4.0634 0.0459
-7 -1 7 4.1759 0.0547
-7 -1 8 3.8626 0.0535
-7 -1 9 3.1736 0.0409
-7 -1 10 2.1725 0.0210
-7 -1 11 1.0021 0.0024
-7 -1 12 -0.0811 -0.0064
-7 -1 13 -0.7695 -0.0019
-7 -1 14 -0.8563 0.0106
-7 -1 15 -0.3946 0.0201
-7 -1 16 0.2558 0.0152
-7 -1 17 0.5609 -0.0081
-7 -1 18 0.0814 -0.0441
-7 -1 19 -1.2635 -0.0797
-7 -1 20 -3.1007 -0.1012
-7 -1 21 -4.7506 -0.1013
-7 0 1 -2.8195 -0.0513
-7 0 2 -1.6302 -0.0470
-7 0 3 -0.1643 -0.0299
-7 0 4 1.2856 -0.0086
-7 0 5 2.5097 0.0054
-7 0 6 3.4453 0.0058
-7 0 7 4.1330 -0.0050
-7 0 8 4.5993 -0.0177
-7 0 9 4.7607 -0.0236
-7 0 10 4.4364 -0.0206
-7 0 11 3.4824 -0.0146
-7 0 12 1.9604 -0.0144
-7 0 13 0.2124 -0.0244
-7 0 14 -1.2402 -0.0408
-7 0 15 -1.9395 -0.0534
-7 0 16 -1.7413 -0.0531
-7 0 17 -0.9115 -0.0380
-7 0 18 0.0004 -0.0157
-7 0 19 0.4508 0.0020
-7 0 20 0.1859 0.0065
-7 0 21 -0.6427 -0.0015
-7 1 1 -1.0220 0.0388
-7 1 2 -0.8905 0.0270
-7 1 3 -0.5446 0.0034
-7 1 4 -0.0077 -0.0275
-7 1 5 0.5494 -0.0556
-7 1 6 0.9253 -0.0697
-7 1 7 1.0376 -0.0637
-7 1 8 0.9850 -0.0391
-7 1 9 0.9649 -0.0054
-7 1 10 1.1009 0.0249
-7 1 11 1.3112 0.0416
-7 1 12 1.3304 0.0407
-7 1 13 0.8872 0.0257
-7 1 14 -0.0763 0.0049
-7 1 15 -1.3004 -0.0125
-7 1 16 -2.3054 -0.0205
-7 1 17 -2.6469 -0.0174
-7 1 18 -2.1707 -0.0059
-7 1 19 -1.1085 0.0091
-7 1 20 0.0484 0.0225
-7 1 21 0.8171 0.0306
-7 2 1 -2.3633 -0.0305
-7 2 2 -1.7498 -0.0309
-7 2 3 -1.0087 -0.0228
-7 2 4 -0.1325 -0.0089
-7 2 5 0.8185 0.0065
-7 2 6 1.6926 0.0188
-7 2 7 2.3040 0.0236
-7 2 8 2.5336 0.0184
-7 2 9 2.3962 0.0052
-7 2 10 2.0253 -0.0099
-7 2 11 1.5855 -0.0183
-7 2 12 1.1761 -0.0137
-7 2 13 0.7913 0.0044
-7 2 14 0.3569 0.0293
-7 2 15 -0.1895 0.0501
-7 2 16 -0.8353 0.0579
-7 2 17 -1.4877 0.0502
-7 2 18 -2.0203 0.0323
-7 2 19 -2.3331 0.0138
-7 2 20 -2.3864 0.0034
-7 2 21 -2.1971 0.0051
-7 3 1 0.8461 -0.0322
-7 3 2 1.1102 -0.0252
-7 3 3 1.3657 -0.0043
-7 3 4 1.5991 0.0203
-7 3 5 1.7860 0.0359
-7 3 6 1.8631 0.0358
-7 3 7 1.7261 0.0239
-7 3 8 1.2698 0.0108
-7 3 9 0.4537 0.0064
-7 3 10 -0.6465 0.0130
-7 3 11 -1.8423 0.0237
-7 3 12 -2.8977 0.0291
-7 3 13 -3.6247 0.0243
-7 3 14 -3.9559 0.0134
-7 3 15 -3.9541 0.0070
-7 3 16 -3.7568 0.0136
-7 3 17 -3.4928 0.0327
-7 3 18 -3.2208 0.0531
-7 3 19 -2.9221 0.0579
-7 3 20 -2.5437 0.0349
-7 3 21 -2.0573 -0.0158
-7 4 1 0.7411 0.0264
-7 4 2 1.0914 0.0197
-7 4 3 1.5148 0.0064
-7 4 4 1.8333 -0.0110
-7 4 5 1.8508 -0.0282
-7 4 6 1.4710 -0.0403
-7 4 7 0.7709 -0.0439
-7 4 8 -0.0242 -0.0385
-7 4 9 -0.6544 -0.0272
-7 4 10 -0.9648 -0.0147
-7 4 11 -0.9885 -0.0056
-7 4 12 -0.9249 -0.0015
-7 4 13 -1.0228 -0.0014
-7 4 14 -1.4357 -0.0025
-7 4 15 -2.1280 -0.0022
-7 4 16 -2.8852 0.0007
-7 4 17 -3.4209 0.0062
-7 4 18 -3.5195 0.0146
-7 4 19 -3.1405 0.0269
-7 4 20 -2.4294 0.0432
-7 5 1 -2.0706 -0.0365
-7 5 2 -2.1021 -0.0322
-7 5 3 -1.6471 -0.0184
-7 5 4 -0.6247 0.0019
-7 5 5 0.7531 0.0225
-7 5 6 2.0578 0.0359
-7 5 7 2.8524 0.0363
-7 5 8 2.9077 0.0224
-7 5 9 2.3009 -0.0012
-7 5 10 1.3525 -0.0256
-7 5 11 0.4565 -0.0417
-7 5 12 -0.0890 -0.0447
-7 5 13 -0.1627 -0.0374
-7 5 14 0.2042 -0.0286
-7 5 15 0.9049 -0.0283
-7 5 16 1.8199 -0.0410
-7 5 17 2.8288 -0.0627
-7 5 18 3.7881 -0.0824
-7 5 19 4.5205 -0.0881
-7 5 20 4.8473 -0.0739
-7 6 1 -0.4084 -0.0657
-7 6 2 0.4180 -0.0452
-7 6 3 1.1748 -0.0150
-7 6 4 1.7814 0.0141
-7 6 5 2.1484 0.0313
-7 6 6 2.1669 0.0321
-7 6 7 1.7552 0.0199
-7 6 8 0.9366 0.0031
-7 6 9 -0.1169 -0.0107
-7 6 10 -1.1244 -0.0192
-7 6 11 -1.8089 -0.0252
-7 6 12 -2.0214 -0.0319
-7 6 13 -1.7991 -0.0382
-7 6 14 -1.3229 -0.0379
-7 6 15 -0.8017 -0.0245
-7 6 16 -0.3607 0.0017
-7 6 17 0.0005 0.0303
-7 6 18 0.3598 0.0440
-7 6 19 0.7773 0.0283
-7 7 1 -0.0249 0.0144
-7 7 2 1.1444 0.0127
-7 7 3 2.1877 0.0059
-7 7 4 2.6583 -0.0049
-7 7 5 2.3957 -0.0159
-7 7 6 1.5664 -0.0221
-7 7 7 0.5363 -0.0184
-7 7 8 -0.3358 -0.0033
-7 7 9 -0.8695 0.0193
-7 7 10 -1.1139 0.0401
-7 7 11 -1.2720 0.0489
-7 7 12 -1.5545 0.0398
-7 7 13 -2.0463 0.0157
-7 7 14 -2.6509 -0.0122
-7 7 15 -3.1340 -0.0294
-7 7 16 -3.2384 -0.0255
-7 7 17 -2.8145 0.0005
-7 7 18 -1.9048 0.0394
-7 8 1 -1.8056 0.0431
-7 8 2 -2.0136 0.0354
-7 8 3 -1.5570 0.0220
-7 8 4 -0.7306 0.0020
-7 8 5 0.0110 -0.0245
-7 8 6 0.2867 -0.0553
-7 8 7 -0.0245 -0.0850
-7 8 8 -0.7442 -0.1063
-7 8 9 -1.5131 -0.1126
-7 8 10 -1.9933 -0.1010
-7 8 11 -2.0371 -0.0753
-7 8 12 -1.7334 -0.0457
-7 8 13 -1.3214 -0.0249
-7 8 14 -1.0337 -0.0212
-7 8 15 -0.9664 -0.0327
-7 8 16 -1.0449 -0.0460
-7 8 17 -1.0944 -0.0432
-7 9 1 -3.3675 -0.0329
-7 9 2 -3.1807 -0.0099
-7 9 3 -2.3385 0.0130
-7 9 4 -0.9813 0.0286
-7 9 5 0.5106 0.0314
-7 9 6 1.6588 0.0215
-7 9 7 2.0958 0.0051
-7 9 8 1.7276 -0.0081
-7 9 9 0.7600 -0.0107
-7 9 10 -0.4169 -0.0013
-7 9 11 -1.4167 0.0144
-7 9 12 -2.0136 0.0269
-7 9 13 -2.1943 0.0276
-7 9 14 -2.1011 0.0131
-7 9 15 -1.9178 -0.0142
-7 10 1 -0.3246 -0.0605
-7 10 2 -0.2435 -0.0379
-7 10 3 -0.3897 -0.0120
-7 10 4 -0.7743 0.0015
-7 10 5 -1.2094 -0.0073
-7 10 6 -1.4152 -0.0362
-7 10 7 -1.1991 -0.0700
-7 10 8 -0.6053 -0.0892
-7 10 9 0.0631 -0.0808
-7 10 10 0.3722 -0.0466
-7 10 11 -0.0182 -0.0017
-7 10 12 -1.1537 0.0339
-7 10 13 -2.7180 0.0468
-7 11 1 -1.2268 0.0394
-7 11 2 -1.5114 0.0413
-7 11 3 -1.9102 0.0526
-7 11 4 -2.4674 0.0679
-7 11 5 -3.1240 0.0762
-7 11 6 -3.6775 0.0667
-7 11 7 -3.8283 0.0353
-7 11 8 -3.3133 -0.0108
-7 11 9 -2.0653 -0.0552
-7 11 10 -0.3086 -0.0800
-6 -14 1 -2.9135 -0.0205
-6 -14 2 -3.1350 -0.0426
-6 -14 3 -3.1732 -0.0945
-6 -14 4 -2.8482 -0.1379
-6 -14 5 -2.1825 -0.1249
-6 -13 1 -2.2670 -0.0579
-6 -13 2 -1.0172 0.0101
-6 -13 3 -0.1171 0.0616
-6 -13 4 0.3353 0.0615
-6 -13 5 0.4983 0.0099
-6 -13 6 0.6185 -0.0559
-6 -13 7 0.8361 -0.0859
-6 -13 8 1.0825 -0.0522
-6 -13 9 1.1323 0.0283
-6 -12 1 1.4109 0.0176
-6 -12 2 1.1044 0.0142
-6 -12 3 0.7967 0.0125
-6 -12 4 0.6066 0.0024
-6 -12 5 0.5548 -0.0226
-6 -12 6 0.5995 -0.0602
-6 -12 7 0.7019 -0.0968
-6 -12 8 0.8627 -0.1102
-6 -12 9 1.0985 -0.0797
-6 -12 10 1.3825 0.0002
-6 -12 11 1.6077 0.1103
-6 -11 1 -2.7143 -0.0175
-6 -11 2 -2.4842 -0.0542
-6 -11 3 -1.7056 -0.0820
-6 -11 4 -0.3968 -0.0823
-6 -11 5 0.9931 -0.0467
-6 -11 6 1.8148 0.0109
-6 -11 7 1.6243 0.0576
-6 -11 8 0.5002 0.0591
-6 -11 9 -0.9448 0.0046
-6 -11 10 -1.8834 -0.0801
-6 -11 11 -1.7346 -0.1421
-6 -11 12 -0.4880 -0.1293
-6 -11 13 1.3054 -0.0220
-6 -10 1 -3.0843 -0.0391
-6 -10 2 -3.6339 0.0080
-6 -10 3 -3.8334 0.0416
-6 -10 4 -3.1533 0.0460
-6 -10 5 -1.5014 0.0271
-6 -10 6 0.6620 0.0072
-6 -10 7 2.5439 0.0067
-6 -10 8 3.4457 0.0271
-6 -10 9 3.1416 0.0485
-6 -10 10 1.9802 0.0441
-6 -10 11 0.6567 0.0025
-6 -10 12 -0.1931 -0.0592
-6 -10 13 -0.3249 -0.1033
-6 -10 14 0.0468 -0.0937
-6 -10 15 0.4574 -0.0208
-6 -9 1 -1.7259 -0.0249
-6 -9 2 -1.9514 -0.0335
-6 -9 3 -2.2880 -0.0365
-6 -9 4 -2.2482 -0.0381
-6 -9 5 -1.4870 -0.0422
-6 -9 6 -0.0228 -0.0476
-6 -9 7 1.7371 -0.0479
-6 -9 8 3.1854 -0.0348
-6 -9 9 3.8106 -0.0050
-6 -9 10 3.4355 0.0354
-6 -9 11 2.2705 0.0711
-6 -9 12 0.7725 0.0837
-6 -9 13 -0.5931 0.0606
-6 -9 14 -1.5454 0.0013
-6 -9 15 -2.0422 -0.0823
-6 -9 16 -2.1988 -0.1707
-6 -8 1 -4.1989 0.0341
-6 -8 2 -4.2407 0.0383
-6 -8 3 -3.6824 0.0352
-6 -8 4 -2.6180 0.0272
-6 -8 5 -1.3155 0.0183
-6 -8 6 -0.1307 0.0105
-6 -8 7 0.6404 0.0025
-6 -8 8 0.8910 -0.0086
-6 -8 9 0.7343 -0.0237
-6 -8 10 0.4162 -0.0404
-6 -8 11 0.1618 -0.0535
-6 -8 12 0.0504 -0.0572
-6 -8 13 -0.0059 -0.0466
-6 -8 14 -0.1673 -0.0175
-6 -8 15 -0.5233 0.0339
-6 -8 16 -0.9976 0.1083
-6 -8 17 -1.3683 0.1995
-6 -7 1 -3.7285 -0.0120
-6 -7 2 -4.0694 0.0109
-6 -7 3 -3.7367 0.0229
-6 -7 4 -2.6769 0.0201
-6 -7 5 -1.1286 0.0083
-6 -7 6 0.4525 -0.0010
-6 -7 7 1.6084 0.0016
-6 -7 8 2.1047 0.0172
-6 -7 9 2.0266 0.0386
-6 -7 10 1.6800 0.0558
-6 -7 11 1.3600 0.0632
-6 -7 12 1.1413 0.0619
-6 -7 13 0.8343 0.0567
-6 -7 14 0.1433 0.0498
-6 -7 15 -1.0751 0.0365
-6 -7 16 -2.6286 0.0084
-6 -7 17 -4.0172 -0.0398
-6 -7 18 -4.6750 -0.1037
-6 -7 19 -4.2845 -0.1677
-6 -6 1 -2.2256 -0.0205
-6 -6 2 -2.3988 -0.0290
-6 -6 3 -2.1146 -0.0395
-6 -6 4 -1.2464 -0.0474
-6 -6 5 0.1509 -0.0512
-6 -6 6 1.7826 -0.0521
-6 -6 7 3.1783 -0.0519
-6 -6 8 3.8682 -0.0518
-6 -6 9 3.5937 -0.0510
-6 -6 10 2.4360 -0.0478
-6 -6 11 0.7858 -0.0412
-6 -6 12 -0.8387 -0.0324
-6 -6 13 -2.0275 -0.0246
-6 -6 14 -2.6407 -0.0221
-6 -6 15 -2.8115 -0.0280
-6 -6 16 -2.8021 -0.0423
-6 -6 17 -2.8119 -0.0601
-6 -6 18 -2.8589 -0.0732
-6 -6 19 -2.8006 -0.0732
-6 -5 1 -2.5334 0.0077
-6 -5 2 -2.0802 0.0099
-6 -5 3 -1.3904 0.0120
-6 -5 4 -0.6233 0.0109
-6 -5 5 0.1050 0.0059
-6 -5 6 0.7353 -0.0010
-6 -5 7 1.2378 -0.0054
-6 -5 8 1.5785 -0.0036
-6 -5 9 1.7183 0.0052
-6 -5 10 1.6442 0.0169
-6 -5 11 1.4017 0.0227
-6 -5 12 1.0897 0.0148
-6 -5 13 0.8107 -0.0081
-6 -5 14 0.6096 -0.0366
-6 -5 15 0.4534 -0.0541
-6 -5 16 0.2750 -0.0462
-6 -5 17 0.0562 -0.0105
-6 -5 18 -0.1157 0.0390
-6 -5 19 -0.0739 0.0779
-6 -5 20 0.3214 0.0850
-6 -4 1 -5.2477 -0.0329
-6 -4 2 -4.8068 -0.0265
-6 -4 3 -3.7708 -0.0137
-6 -4 4 -2.4236 0.0044
-6 -4 5 -1.0768 0.0249
-6 -4 6 0.0639 0.0432
-6 -4 7 0.9587 0.0543
-6 -4 8 1.6923 0.0545
-6 -4 9 2.3661 0.0436
-6 -4 10 2.9978 0.0267
-6 -4 11 3.4899 0.0116
-6 -4 12 3.6837 0.0060
-6 -4 13 3.4605 0.0134
-6 -4 14 2.8278 0.0308
-6 -4 15 1.9411 0.0499
-6 -4 16 1.0519 0.0611
-6 -4 17 0.4115 0.0573
-6 -4 18 0.1772 0.0370
-6 -4 19 0.3617 0.0040
-6 -4 20 0.8394 -0.0337
-6 -4 21 1.4008 -0.0669
-6 -3 1 -7.4293 0.0162
-6 -3 2 -7.3118 -0.0172
-6 -3 3 -6.4714 -0.0507
-6 -3 4 -5.0823 -0.0678
-6 -3 5 -3.4464 -0.0609
-6 -3 6 -1.8675 -0.0341
-6 -3 7 -0.5653 -0.0011
-6 -3 8 0.3406 0.0230
-6 -3 9 0.8046 0.0285
-6 -3 10 0.8373 0.0163
-6 -3 11 0.5230 -0.0045
-6 -3 12 0.0432 -0.0221
-6 -3 13 -0.3497 -0.0284
-6 -3 14 -0.4317 -0.0222
-6 -3 15 -0.1437 -0.0087
-6 -3 16 0.3300 0.0054
-6 -3 17 0.6166 0.0151
-6 -3 18 0.3439 0.0191
-6 -3 19 -0.6309 0.0182
-6 -3 20 -2.0935 0.0132
-6 -3 21 -3.5385 0.0040
-6 -2 1 -3.9097 0.0239
-6 -2 2 -3.7976 0.0249
-6 -2 3 -3.2041 0.0215
-6 -2 4 -2.3265 0.0152
-6 -2 5 -1.3943 0.0060
-6 -2 6 -0.5755 -0.0063
-6 -2 7 0.0645 -0.0191
-6 -2 8 0.5327 -0.0271
-6 -2 9 0.8418 -0.0238
-6 -2 10 0.9654 -0.0073
-6 -2 11 0.8542 0.0169
-6 -2 12 0.4980 0.0372
-6 -2 13 -0.0205 0.0426
-6 -2 14 -0.5345 0.0299
-6 -2 15 -0.8706 0.0065
-6 -2 16 -0.9455 -0.0138
-6 -2 17 -0.8147 -0.0204
-6 -2 18 -0.6317 -0.0139
-6 -2 19 -0.5444 -0.0068
-6 -2 20 -0.5961 -0.0162
-6 -2 21 -0.7022 -0.0520
-6 -2 22 -0.7146 -0.1094
-6 -1 1 -1.2722 0.0359
-6 -1 2 -1.3683 0.0614
-6 -1 3 -0.9149 0.0728
-6 -1 4 0.0068 0.0654
-6 -1 5 1.1810 0.0445
-6 -1 6 2.3302 0.0208
-6 -1 7 3.2124 0.0039
-6 -1 8 3.6910 -0.0018
-6 -1 9 3.7477 0.0023
-6 -1 10 3.4420 0.0106
-6 -1 11 2.8594 0.0172
-6 -1 12 2.0842 0.0174
-6 -1 13 1.2071 0.0087
-6 -1 14 0.3444 -0.0080
-6 -1 15 -0.3668 -0.0285
-6 -1 16 -0.8113 -0.0447
-6 -1 17 -0.9528 -0.0475
-6 -1 18 -0.8637 -0.0308
-6 -1 19 -0.6978 0.0040
-6 -1 20 -0.6131 0.0462
-6 -1 21 -0.6883 0.0785
-6 -1 22 -0.8841 0.0853
-6 0 1 -3.0105 -0.0386
-6 0 2 -1.8351 -0.0390
-6 0 3 -0.4406 -0.0380
-6 0 4 0.9639 -0.0339
-6 0 5 2.2323 -0.0240
-6 0 6 3.2943 -0.0084
-6 0 7 4.1129 0.0082
-6 0 8 4.6241 0.0176
-6 0 9 4.7160 0.0137
-6 0 10 4.2834 -0.0022
-6 0 11 3.3371 -0.0205
-6 0 12 2.0906 -0.0280
-6 0 13 0.9391 -0.0170
-6 0 14 0.3044 0.0088
-6 0 15 0.4066 0.0350
-6 0 16 1.0981 0.0448
-6 0 17 1.8814 0.0300
-6 0 18 2.1353 -0.0038
-6 0 19 1.4471 -0.0390
-6 0 20 -0.1363 -0.0571
-6 0 21 -2.0931 -0.0485
-6 0 22 -3.6736 -0.0180
-6 1 1 -3.2208 -0.0433
-6 1 2 -2.4034 -0.0492
-6 1 3 -1.2552 -0.0384
-6 1 4 0.0399 -0.0161
-6 1 5 1.3142 0.0059
-6 1 6 2.4847 0.0170
-6 1 7 3.5490 0.0147
-6 1 8 4.5059 0.0058
-6 1 9 5.2585 0.0000
-6 1 10 5.5887 0.0029
-6 1 11 5.2502 0.0117
-6 1 12 4.1431 0.0182
-6 1 13 2.4589 0.0152
-6 1 14 0.6811 0.0027
-6 1 15 -0.5942 -0.0120
-6 1 16 -0.9387 -0.0188
-6 1 17 -0.3166 -0.0127
-6 1 18 0.8838 0.0028
-6 1 19 2.0405 0.0175
-6 1 20 2.6105 0.0217
-6 1 21 2.3882 0.0127
-6 1 22 1.5706 -0.0030
-6 2 1 -1.6034 0.0508
-6 2 2 -1.5237 0.0673
-6 2 3 -1.1633 0.0684
-6 2 4 -0.5442 0.0492
-6 2 5 0.1568 0.0149
-6 2 6 0.7085 -0.0223
-6 2 7 0.9860 -0.0483
-6 2 8 1.0704 -0.0538
-6 2 9 1.1996 -0.0390
-6 2 10 1.5888 -0.0127
-6 2 11 2.2387 0.0115
-6 2 12 2.8748 0.0221
-6 2 13 3.0799 0.0144
-6 2 14 2.5501 -0.0071
-6 2 15 1.3152 -0.0321
-6 2 16 -0.2249 -0.0492
-6 2 17 -1.4838 -0.0521
-6 2 18 -1.9887 -0.0415
-6 2 19 -1.6216 -0.0249
-6 2 20 -0.6623 -0.0120
-6 2 21 0.3839 -0.0103
-6 2 22 1.0619 -0.0219
-6 3 1 -3.5846 -0.0400
-6 3 2 -3.3966 -0.0434
-6 3 3 -2.9410 -0.0399
-6 3 4 -2.0978 -0.0278
-6 3 5 -0.8539 -0.0064
-6 3 6 0.6075 0.0211
-6 3 7 1.9479 0.0462
-6 3 8 2.8251 0.0582
-6 3 9 3.0584 0.0503
-6 3 10 2.7071 0.0251
-6 3 11 2.0180 -0.0055
-6 3 12 1.2864 -0.0262
-6 3 13 0.7178 -0.0276
-6 3 14 0.3662 -0.0118
-6 3 15 0.1652 0.0089
-6 3 16 0.0107 0.0205
-6 3 17 -0.1628 0.0160
-6 3 18 -0.3538 0.0008
-6 3 19 -0.5103 -0.0114
-6 3 20 -0.5680 -0.0073
-6 3 21 -0.4838 0.0174
-6 3 22 -0.2543 0.0554
-6 4 1 -0.7954 -0.0317
-6 4 2 -0.9209 -0.0430
-6 4 3 -1.0122 -0.0444
-6 4 4 -1.0357 -0.0356
-6 4 5 -0.9519 -0.0229
-6 4 6 -0.7661 -0.0129
-6 4 7 -0.5601 -0.0081
-6 4 8 -0.4770 -0.0056
-6 4 9 -0.6616 -0.0011
-6 4 10 -1.1908 0.0064
-6 4 11 -2.0298 0.0131
-6 4 12 -3.0383 0.0139
-6 4 13 -4.0197 0.0069
-6 4 14 -4.7872 -0.0033
-6 4 15 -5.2169 -0.0081
-6 4 16 -5.2721 -0.0008
-6 4 17 -4.9969 0.0172
-6 4 18 -4.4891 0.0351
-6 4 19 -3.8650 0.0375
-6 4 20 -3.2249 0.0132
-6 4 21 -2.6298 -0.0374
-6 5 1 -0.6905 0.0694
-6 5 2 -0.2648 0.0816
-6 5 3 0.3750 0.0769
-6 5 4 1.0151 0.0556
-6 5 5 1.4227 0.0236
-6 5 6 1.4637 -0.0089
-6 5 7 1.1772 -0.0310
-6 5 8 0.7596 -0.0358
-6 5 9 0.4597 -0.0231
-6 5 10 0.4389 -0.0001
-6 5 11 0.6707 0.0219
-6 5 12 0.9407 0.0334
-6 5 13 0.9550 0.0310
-6 5 14 0.5042 0.0183
-6 5 15 -0.4034 0.0029
-6 5 16 -1.5151 -0.0075
-6 5 17 -2.4373 -0.0096
-6 5 18 -2.8189 -0.0042
-6 5 19 -2.5215 0.0054
-6 5 20 -1.6842 0.0160
-6 5 21 -0.6491 0.0255
-6 6 1 -3.1053 -0.0246
-6 6 2 -3.1981 -0.0203
-6 6 3 -2.8529 -0.0157
-6 6 4 -1.9308 -0.0103
-6 6 5 -0.5472 -0.0029
-6 6 6 0.9369 0.0067
-6 6 7 2.0724 0.0156
-6 6 8 2.5376 0.0194
-6 6 9 2.2888 0.0156
-6 6 10 1.5650 0.0068
-6 6 11 0.7536 -0.0003
-6 6 12 0.2043 0.0015
-6 6 13 0.0935 0.0143
-6 6 14 0.3996 0.0330
-6 6 15 0.9766 0.0479
-6 6 16 1.6602 0.0509
-6 6 17 2.3372 0.0419
-6 6 18 2.9485 0.0296
-6 6 19 3.4467 0.0267
-6 6 20 3.7564 0.0424
-6 7 1 0.8653 -0.0639
-6 7 2 1.5698 -0.0611
-6 7 3 2.1591 -0.0493
-6 7 4 2.4878 -0.0329
-6 7 5 2.4550 -0.0173
-6 7 6 2.0102 -0.0055
-6 7 7 1.1754 0.0040
-6 7 8 0.0703 0.0152
-6 7 9 -1.0906 0.0309
-6 7 10 -2.0499 0.0490
-6 7 11 -2.5939 0.0636
-6 7 12 -2.6295 0.0688
-6 7 13 -2.2091 0.0640
-6 7 14 -1.4886 0.0543
-6 7 15 -0.6476 0.0476
-6 7 16 0.1805 0.0477
-6 7 17 0.9306 0.0503
-6 7 18 1.5800 0.0440
-6 7 19 2.1031 0.0180
-6 8 1 0.0241 0.0315
-6 8 2 1.0320 0.0342
-6 8 3 2.2132 0.0341
-6 8 4 3.0309 0.0276
-6 8 5 3.1318 0.0122
-6 8 6 2.4997 -0.0089
-6 8 7 1.4305 -0.0265
-6 8 8 0.3544 -0.0291
-6 8 9 -0.3903 -0.0109
-6 8 10 -0.7117 0.0227
-6 8 11 -0.7738 0.0561
-6 8 12 -0.8656 0.0716
-6 8 13 -1.2077 0.0594
-6 8 14 -1.8014 0.0245
-6 8 15 -2.4042 -0.0165
-6 8 16 -2.6461 -0.0446
-6 8 17 -2.2300 -0.0491
-6 8 18 -1.1104 -0.0324
-6 9 1 -0.6810 0.0214
-6 9 2 -0.7812 0.0178
-6 9 3 -0.3576 0.0169
-6 9 4 0.4371 0.0174
-6 9 5 1.2273 0.0164
-6 9 6 1.5988 0.0107
-6 9 7 1.3138 -0.0014
-6 9 8 0.4353 -0.0173
-6 9 9 -0.7074 -0.0305
-6 9 10 -1.6961 -0.0341
-6 9 11 -2.2437 -0.0253
-6 9 12 -2.3334 -0.0083
-6 9 13 -2.2009 0.0068
-6 9 14 -2.1726 0.0107
-6 9 15 -2.4571 0.0016
-6 9 16 -3.0131 -0.0121
-6 9 17 -3.5694 -0.0156
-6 10 1 -3.9342 -0.0446
-6 10 2 -3.9575 -0.0583
-6 10 3 -3.3747 -0.0658
-6 10 4 -2.1418 -0.0591
-6 10 5 -0.5119 -0.0372
-6 10 6 1.0256 -0.0060
-6 10 7 1.9478 0.0251
-6 10 8 1.9361 0.0491
-6 10 9 1.0218 0.0637
-6 10 10 -0.4367 0.0714
-6 10 11 -1.9269 0.0748
-6 10 12 -3.0079 0.0734
-6 10 13 -3.4749 0.0632
-6 10 14 -3.3919 0.0398
-6 10 15 -2.9979 0.0023
-6 11 1 -2.0297 -0.0018
-6 11 2 -2.2774 0.0023
-6 11 3 -2.3768 0.0171
-6 11 4 -2.3738 0.0286
-6 11 5 -2.2433 0.0227
-6 11 6 -1.8973 -0.0046
-6 11 7 -1.2641 -0.0432
-6 11 8 -0.3885 -0.0729
-6 11 9 0.5188 -0.0749
-6 11 10 1.1310 -0.0432
-6 11 11 1.1464 0.0105
-6 11 12 0.4537 0.0626
-6 11 13 -0.7736 0.0894
-6 12 1 -0.7147 0.0703
-6 12 2 -1.4811 0.0770
-6 12 3 -2.3088 0.0840
-6 12 4 -2.9765 0.0924
-6 12 5 -3.3153 0.0978
-6 12 6 -3.2233 0.0923
-6 12 7 -2.6548 0.0705
-6 12 8 -1.6144 0.0350
-6 12 9 -0.1790 -0.0009
-5 -14 1 -0.4474 -0.0319
-5 -14 2 -0.6706 -0.0100
-5 -14 3 -0.6245 -0.0075
-5 -14 4 -0.2064 -0.0237
-5 -14 5 0.5308 -0.0475
-5 -14 6 1.3894 -0.0701
-5 -13 1 -2.1951 0.0249
-5 -13 2 -2.2600 0.0208
-5 -13 3 -2.0838 -0.0146
-5 -13 4 -1.5307 -0.0542
-5 -13 5 -0.6755 -0.0537
-5 -13 6 0.1928 0.0143
-5 -13 7 0.7088 0.1336
-5 -13 8 0.6343 0.2439
-5 -13 9 0.0067 0.2722
-5 -12 1 -2.2677 -0.0878
-5 -12 2 -1.4784 -0.0306
-5 -12 3 -0.9351 0.0267
-5 -12 4 -0.6567 0.0462
-5 -12 5 -0.4410 0.0180
-5 -12 6 -0.0516 -0.0312
-5 -12 7 0.5699 -0.0560
-5 -12 8 1.2090 -0.0261
-5 -12 9 1.4726 0.0483
-5 -12 10 1.0227 0.1168
-5 -12 11 -0.1893 0.1176
-5 -12 12 -1.8363 0.0166
-5 -11 1 -0.3781 0.0377
-5 -11 2 -0.8697 0.0588
-5 -11 3 -1.3457 0.0830
-5 -11 4 -1.7339 0.0936
-5 -11 5 -1.9620 0.0782
-5 -11 6 -1.9603 0.0370
-5 -11 7 -1.6707 -0.0142
-5 -11 8 -1.0766 -0.0495
-5 -11 9 -0.2452 -0.0461
-5 -11 10 0.6484 0.0025
-5 -11 11 1.3477 0.0791
-5 -11 12 1.6042 0.1471
-5 -11 13 1.2923 0.1664
-5 -11 14 0.4910 0.1141
-5 -10 1 -3.1578 -0.0010
-5 -10 2 -3.1806 -0.0361
-5 -10 3 -2.5860 -0.0741
-5 -10 4 -1.3004 -0.0998
-5 -10 5 0.3536 -0.0994
-5 -10 6 1.7703 -0.0717
-5 -10 7 2.3875 -0.0331
-5 -10 8 2.0272 -0.0085
-5 -10 9 1.0225 -0.0146
-5 -10 10 0.0365 -0.0457
-5 -10 11 -0.3225 -0.0745
-5 -10 12 0.1491 -0.0681
-5 -10 13 1.1505 -0.0092
-5 -10 14 2.0823 0.0923
-5 -10 15 2.4155 0.2046
-5 -9 1 -4.3111 -0.0422
-5 -9 2 -4.8915 -0.0169
-5 -9 3 -5.4000 0.0018
-5 -9 4 -5.1909 0.0009
-5 -9 5 -3.8965 -0.0174
-5 -9 6 -1.6949 -0.0369
-5 -9 7 0.7430 -0.0384
-5 -9 8 2.6014 -0.0152
-5 -9 9 3.3538 0.0214
-5 -9 10 3.0191 0.0499
-5 -9 11 2.0924 0.0545
-5 -9 12 1.2116 0.0375
-5 -9 13 0.7824 0.0172
-5 -9 14 0.7954 0.0139
-5 -9 15 0.9262 0.0324
-5 -9 16 0.8218 0.0568
-5 -9 17 0.3629 0.0604
-5 -8 1 -4.2437 0.0457
-5 -8 2 -3.9638 0.0584
-5 -8 3 -3.8619 0.0666
-5 -8 4 -3.7033 0.0652
-5 -8 5 -3.1392 0.0494
-5 -8 6 -1.9572 0.0191
-5 -8 7 -0.2658 -0.0187
-5 -8 8 1.5093 -0.0527
-5 -8 9 2.8225 -0.0723
-5 -8 10 3.2816 -0.0735
-5 -8 11 2.8308 -0.0598
-5 -8 12 1.7435 -0.0392
-5 -8 13 0.4430 -0.0204
-5 -8 14 -0.7203 -0.0083
-5 -8 15 -1.5984 -0.0049
-5 -8 16 -2.2186 -0.0100
-5 -8 17 -2.6522 -0.0236
-5 -8 18 -2.8946 -0.0447
-5 -7 1 -5.3749 0.0090
-5 -7 2 -5.8194 0.0274
-5 -7 3 -5.5520 0.0397
-5 -7 4 -4.6367 0.0459
-5 -7 5 -3.2740 0.0498
-5 -7 6 -1.7687 0.0550
-5 -7 7 -0.4490 0.0611
-5 -7 8 0.4357 0.0642
-5 -7 9 0.7924 0.0597
-5 -7 10 0.6991 0.0452
-5 -7 11 0.3458 0.0211
-5 -7 12 -0.0685 -0.0093
-5 -7 13 -0.4284 -0.0407
-5 -7 14 -0.7345 -0.0653
-5 -7 15 -1.0601 -0.0727
-5 -7 16 -1.4614 -0.0538
-5 -7 17 -1.9002 -0.0059
-5 -7 18 -2.2330 0.0613
-5 -7 19 -2.2786 0.1265
-5 -6 1 -3.3445 -0.0458
-5 -6 2 -4.3681 -0.0451
-5 -6 3 -4.7794 -0.0491
-5 -6 4 -4.4599 -0.0571
-5 -6 5 -3.5119 -0.0638
-5 -6 6 -2.2413 -0.0626
-5 -6 7 -1.0237 -0.0504
-5 -6 8 -0.1288 -0.0307
-5 -6 9 0.3903 -0.0120
-5 -6 10 0.6720 -0.0019
-5 -6 11 0.9031 -0.0012
-5 -6 12 1.1566 -0.0035
-5 -6 13 1.3213 0.0003
-5 -6 14 1.1788 0.0138
-5 -6 15 0.5790 0.0308
-5 -6 16 -0.4031 0.0380
-5 -6 17 -1.4442 0.0229
-5 -6 18 -2.1117 -0.0175
-5 -6 19 -2.0917 -0.0735
-5 -6 20 -1.3663 -0.1276
-5 -5 1 -1.5193 0.0481
-5 -5 2 -2.2205 0.0382
-5 -5 3 -2.5447 0.0214
-5 -5 4 -2.3845 0.0043
-5 -5 5 -1.6769 -0.0082
-5 -5 6 -0.4977 -0.0137
-5 -5 7 0.8922 -0.0125
-5 -5 8 2.1022 -0.0071
-5 -5 9 2.7625 -0.0004
-5 -5 10 2.6924 0.0047
-5 -5 11 1.9852 0.0069
-5 -5 12 0.9531 0.0070
-5 -5 13 -0.0436 0.0069
-5 -5 14 -0.7813 0.0082
-5 -5 15 -1.2594 0.0103
-5 -5 16 -1.6422 0.0115
-5 -5 17 -2.0987 0.0109
-5 -5 18 -2.6530 0.0105
-5 -5 19 -3.1445 0.0156
-5 -5 20 -3.3229 0.0311
-5 -5 21 -3.0136 0.0573
-5 -4 1 -2.0235 -0.0511
-5 -4 2 -2.1743 -0.0399
-5 -4 3 -1.8981 -0.0198
-5 -4 4 -1.3352 0.0028
-5 -4 5 -0.6196 0.0212
-5 -4 6 0.1527 0.0308
-5 -4 7 0.9030 0.0315
-5 -4 8 1.5389 0.0282
-5 -4 9 1.9605 0.0283
-5 -4 10 2.1150 0.0361
-5 -4 11 2.0559 0.0492
-5 -4 12 1.9435 0.0585
-5 -4 13 1.9604 0.0539
-5 -4 14 2.1825 0.0321
-5 -4 15 2.4981 0.0002
-5 -4 16 2.6492 -0.0277
-5 -4 17 2.3914 -0.0394
-5 -4 18 1.6763 -0.0325
-5 -4 19 0.7328 -0.0168
-5 -4 20 -0.0270 -0.0069
-5 -4 21 -0.2333 -0.0126
-5 -3 1 -7.1990 -0.0744
-5 -3 2 -7.5771 -0.0693
-5 -3 3 -6.8807 -0.0560
-5 -3 4 -5.3906 -0.0344
-5 -3 5 -3.5376 -0.0067
-5 -3 6 -1.7065 0.0219
-5 -3 7 -0.1062 0.0440
-5 -3 8 1.2350 0.0523
-5 -3 9 2.3719 0.0443
-5 -3 10 3.3259 0.0239
-5 -3 11 4.0343 0.0008
-5 -3 12 4.3896 -0.0142
-5 -3 13 4.3292 -0.0148
-5 -3 14 3.8982 -0.0017
-5 -3 15 3.2396 0.0182
-5 -3 16 2.5197 0.0358
-5 -3 17 1.8474 0.0448
-5 -3 18 1.2425 0.0438
-5 -3 19 0.6728 0.0358
-5 -3 20 0.1209 0.0260
-5 -3 21 -0.3720 0.0193
-5 -3 22 -0.7209 0.0185
-5 -2 1 -7.9628 0.0971
-5 -2 2 -9.1412 0.0653
-5 -2 3 -9.4288 0.0173
-5 -2 4 -8.8061 -0.0320
-5 -2 5 -7.4478 -0.0669
-5 -2 6 -5.6352 -0.0780
-5 -2 7 -3.6692 -0.0657
-5 -2 8 -1.8257 -0.0404
-5 -2 9 -0.3469 -0.0162
-5 -2 10 0.5763 -0.0039
-5 -2 11 0.8576 -0.0055
-5 -2 12 0.5810 -0.0138
-5 -2 13 0.0144 -0.0183
-5 -2 14 -0.4814 -0.0120
-5 -2 15 -0.6310 0.0042
-5 -2 16 -0.4159 0.0223
-5 -2 17 -0.1202 0.0325
-5 -2 18 -0.1924 0.0293
-5 -2 19 -0.9788 0.0138
-5 -2 20 -2.4792 -0.0077
-5 -2 21 -4.2798 -0.0279
-5 -2 22 -5.7235 -0.0416
-5 -1 1 -4.5048 0.0201
-5 -1 2 -5.5048 0.0288
-5 -1 3 -5.9322 0.0426
-5 -1 4 -5.7807 0.0574
-5 -1 5 -5.1373 0.0646
-5 -1 6 -4.1403 0.0563
-5 -1 7 -2.9397 0.0314
-5 -1 8 -1.6861 -0.0011
-5 -1 9 -0.5402 -0.0261
-5 -1 10 0.3286 -0.0310
-5 -1 11 0.7792 -0.0142
-5 -1 12 0.7634 0.0137
-5 -1 13 0.3742 0.0360
-5 -1 14 -0.1688 0.0408
-5 -1 15 -0.6084 0.0286
-5 -1 16 -0.7718 0.0112
-5 -1 17 -0.6516 0.0027
-5 -1 18 -0.3943 0.0092
-5 -1 19 -0.1983 0.0236
-5 -1 20 -0.1863 0.0305
-5 -1 21 -0.3329 0.0165
-5 -1 22 -0.4917 -0.0203
-5 0 1 -1.9538 -0.0901
-5 0 2 -2.6359 -0.0562
-5 0 3 -2.6774 -0.0212
-5 0 4 -2.1179 0.0033
-5 0 5 -1.1282 0.0124
-5 0 6 0.0533 0.0082
-5 0 7 1.2012 -0.0024
-5 0 8 2.1587 -0.0115
-5 0 9 2.8445 -0.0128
-5 0 10 3.2202 -0.0038
-5 0 11 3.2582 0.0124
-5 0 12 2.9401 0.0278
-5 0 13 2.2899 0.0325
-5 0 14 1.4088 0.0198
-5 0 15 0.4720 -0.0091
-5 0 16 -0.3277 -0.0435
-5 0 17 -0.8619 -0.0676
-5 0 18 -1.1234 -0.0687
-5 0 19 -1.2167 -0.0449
-5 0 20 -1.2875 -0.0085
-5 0 21 -1.4318 0.0194
-5 0 22 -1.6438 0.0193
-5 0 23 -1.8303 -0.0165
-5 1 1 -3.4039 0.0181
-5 1 2 -2.8769 0.0161
-5 1 3 -2.1257 0.0032
-5 1 4 -1.2720 -0.0177
-5 1 5 -0.3760 -0.0355
-5 1 6 0.5611 -0.0390
-5 1 7 1.5471 -0.0252
-5 1 8 2.5295 -0.0028
-5 1 9 3.3571 0.0136
-5 1 10 3.8170 0.0143
-5 1 11 3.7453 0.0017
-5 1 12 3.1573 -0.0106
-5 1 13 2.3059 -0.0078
-5 1 14 1.6049 0.0143
-5 1 15 1.4285 0.0458
-5 1 16 1.8897 0.0683
-5 1 17 2.7326 0.0680
-5 1 18 3.4302 0.0454
-5 1 19 3.4572 0.0163
-5 1 20 2.5928 0.0009
-5 1 21 1.0729 0.0114
-5 1 22 -0.5115 0.0438
-5 1 23 -1.5229 0.0803
-5 2 1 -3.6642 0.0293
-5 2 2 -3.4137 0.0035
-5 2 3 -2.8683 -0.0095
-5 2 4 -2.1043 -0.0085
-5 2 5 -1.2100 -0.0008
-5 2 6 -0.2325 0.0044
-5 2 7 0.8400 0.0024
-5 2 8 2.0288 -0.0042
-5 2 9 3.2730 -0.0085
-5 2 10 4.3652 -0.0055
-5 2 11 4.9860 0.0038
-5 2 12 4.8498 0.0132
-5 2 13 3.8926 0.0158
-5 2 14 2.3793 0.0096
-5 2 15 0.8424 -0.0014
-5 2 16 -0.1458 -0.0096
-5 2 17 -0.2529 -0.0099
-5 2 18 0.4407 -0.0029
-5 2 19 1.4839 0.0052
-5 2 20 2.2956 0.0068
-5 2 21 2.4691 -0.0010
-5 2 22 1.9672 -0.0148
-5 2 23 1.1017 -0.0262
-5 3 1 -2.0538 -0.0395
-5 3 2 -2.1706 0.0097
-5 3 3 -1.9612 0.0543
-5 3 4 -1.4116 0.0805
-5 3 5 -0.6626 0.0812
-5 3 6 0.0483 0.0590
-5 3 7 0.5317 0.0251
-5 3 8 0.7809 -0.0058
-5 3 9 0.9874 -0.0223
-5 3 10 1.4102 -0.0212
-5 3 11 2.1720 -0.0084
-5 3 12 3.1199 0.0049
-5 3 13 3.8590 0.0088
-5 3 14 3.9585 0.0005
-5 3 15 3.2124 -0.0153
-5 3 16 1.7958 -0.0293
-5 3 17 0.2097 -0.0337
-5 3 18 -0.9608 -0.0274
-5 3 19 -1.3385 -0.0161
-5 3 20 -0.9297 -0.0092
-5 3 21 -0.0875 -0.0144
-5 3 22 0.7027 -0.0333
-5 4 1 -4.4971 -0.0074
-5 4 2 -4.6936 -0.0027
-5 4 3 -4.6619 -0.0074
-5 4 4 -4.2084 -0.0177
-5 4 5 -3.2038 -0.0229
-5 4 6 -1.7394 -0.0136
-5 4 7 -0.1495 0.0099
-5 4 8 1.1235 0.0358
-5 4 9 1.7417 0.0481
-5 4 10 1.6332 0.0372
-5 4 11 1.0114 0.0072
-5 4 12 0.2491 -0.0260
-5 4 13 -0.3091 -0.0454
-5 4 14 -0.4923 -0.0437
-5 4 15 -0.3384 -0.0275
-5 4 16 -0.0243 -0.0121
-5 4 17 0.2524 -0.0099
-5 4 18 0.3712 -0.0215
-5 4 19 0.3244 -0.0349
-5 4 20 0.1927 -0.0339
-5 4 21 0.0863 -0.0097
-5 4 22 0.0861 0.0329
-5 5 1 -0.6842 0.0370
-5 5 2 -0.9855 0.0164
-5 5 3 -1.1703 -0.0052
-5 5 4 -1.2523 -0.0207
-5 5 5 -1.2096 -0.0285
-5 5 6 -1.0233 -0.0297
-5 5 7 -0.7219 -0.0257
-5 5 8 -0.4007 -0.0171
-5 5 9 -0.2006 -0.0052
-5 5 10 -0.2571 0.0065
-5 5 11 -0.6442 0.0127
-5 5 12 -1.3367 0.0090
-5 5 13 -2.2051 -0.0043
-5 5 14 -3.0464 -0.0211
-5 5 15 -3.6428 -0.0320
-5 5 16 -3.8337 -0.0303
-5 5 17 -3.5765 -0.0166
-5 5 18 -2.9682 0.0002
-5 5 19 -2.2110 0.0072
-5 5 20 -1.5286 -0.0052
-5 5 21 -1.0714 -0.0373
-5 5 22 -0.8570 -0.0792
-5 6 1 -1.0808 0.0227
-5 6 2 -0.7761 0.0430
-5 6 3 -0.1566 0.0563
-5 6 4 0.5824 0.0591
-5 6 5 1.2082 0.0494
-5 6 6 1.5678 0.0294
-5 6 7 1.6611 0.0069
-5 6 8 1.6295 -0.0077
-5 6 9 1.6663 -0.0063
-5 6 10 1.8908 0.0111
-5 6 11 2.2545 0.0363
-5 6 12 2.5352 0.0566
-5 6 13 2.4353 0.0623
-5 6 14 1.7441 0.0521
-5 6 15 0.4842 0.0327
-5 6 16 -1.0441 0.0144
-5 6 17 -2.3583 0.0044
-5 6 18 -2.9991 0.0039
-5 6 19 -2.7440 0.0090
-5 6 20 -1.7197 0.0152
-5 6 21 -0.3457 0.0204
-5 7 1 -2.6773 -0.0072
-5 7 2 -2.7807 -0.0058
-5 7 3 -2.7284 -0.0129
-5 7 4 -2.3502 -0.0263
-5 7 5 -1.6205 -0.0373
-5 7 6 -0.7070 -0.0370
-5 7 7 0.0989 -0.0229
-5 7 8 0.5293 -0.0003
-5 7 9 0.4801 0.0212
-5 7 10 0.0600 0.0341
-5 7 11 -0.4772 0.0382
-5 7 12 -0.8721 0.0390
-5 7 13 -0.9885 0.0432
-5 7 14 -0.8579 0.0527
-5 7 15 -0.6232 0.0631
-5 7 16 -0.4259 0.0673
-5 7 17 -0.3131 0.0613
-5 7 18 -0.2200 0.0479
-5 7 19 -0.0357 0.0358
-5 7 20 0.2973 0.0339
-5 8 1 1.2360 0.0440
-5 8 2 1.9314 0.0204
-5 8 3 2.5821 -0.0084
-5 8 4 2.9644 -0.0369
-5 8 5 2.9036 -0.0595
-5 8 6 2.3311 -0.0713
-5 8 7 1.3266 -0.0685
-5 8 8 0.1181 -0.0500
-5 8 9 -0.9786 -0.0187
-5 8 10 -1.6672 0.0179
-5 8 11 -1.7804 0.0500
-5 8 12 -1.3370 0.0690
-5 8 13 -0.5176 0.0718
-5 8 14 0.4279 0.0616
-5 8 15 1.2855 0.0459
-5 8 16 1.9414 0.0315
-5 8 17 2.3810 0.0196
-5 8 18 2.6398 0.0054
-5 8 19 2.7495 -0.0177
-5 9 1 -1.4718 0.0144
-5 9 2 -0.8129 0.0226
-5 9 3 0.3712 0.0395
-5 9 4 1.5647 0.0579
-5 9 5 2.2501 0.0643
-5 9 6 2.1618 0.0496
-5 9 7 1.4061 0.0173
-5 9 8 0.3902 -0.0166
-5 9 9 -0.3992 -0.0323
-5 9 10 -0.6489 -0.0201
-5 9 11 -0.3702 0.0128
-5 9 12 0.1308 0.0461
-5 9 13 0.4450 0.0582
-5 9 14 0.3064 0.0393
-5 9 15 -0.2465 -0.0035
-5 9 16 -0.8853 -0.0519
-5 9 17 -1.1774 -0.0876
-5 9 18 -0.8372 -0.1024
-5 10 1 -1.4523 -0.0459
-5 10 2 -1.4795 -0.0449
-5 10 3 -1.0969 -0.0331
-5 10 4 -0.2715 -0.0097
-5 10 5 0.7732 0.0215
-5 10 6 1.6367 0.0522
-5 10 7 1.9353 0.0727
-5 10 8 1.5068 0.0778
-5 10 9 0.5085 0.0705
-5 10 10 -0.6562 0.0601
-5 10 11 -1.5488 0.0562
-5 10 12 -1.9270 0.0625
-5 10 13 -1.8622 0.0743
-5 10 14 -1.6729 0.0830
-5 10 15 -1.7140 0.0829
-5 10 16 -2.1485 0.0760
-5 11 1 -3.6436 0.0530
-5 11 2 -4.3704 0.0077
-5 11 3 -4.7152 -0.0458
-5 11 4 -4.3102 -0.0799
-5 11 5 -3.0807 -0.0775
-5 11 6 -1.3440 -0.0416
-5 11 7 0.3019 0.0066
-5 11 8 1.2464 0.0413
-5 11 9 1.1509 0.0472
-5 11 10 0.1012 0.0268
-5 11 11 -1.4470 -0.0040
-5 11 12 -2.8909 -0.0276
-5 11 13 -3.7499 -0.0358
-5 11 14 -3.8474 -0.0334
-5 12 1 -1.5006 -0.0186
-5 12 2 -2.0480 -0.0322
-5 12 3 -2.3390 -0.0261
-5 12 4 -2.3776 -0.0051
-5 12 5 -2.1879 0.0185
-5 12 6 -1.7733 0.0313
-5 12 7 -1.1235 0.0276
-5 12 8 -0.2689 0.0126
-5 12 9 0.6632 -0.0007
-5 12 10 1.4427 0.0003
-5 12 11 1.8084 0.0196
-5 12 12 1.5906 0.0495
-5 13 1 1.5718 -0.0113
-5 13 2 0.5482 -0.0078
-5 13 3 -0.7375 -0.0196
-5 13 4 -1.8749 -0.0358
-5 13 5 -2.5275 -0.0455
-5 13 6 -2.5405 -0.0440
-5 13 7 -1.9533 -0.0346
-4 -15 1 0.7809 -0.0203
-4 -15 2 -0.1285 -0.0083
-4 -14 1 -0.6162 -0.0910
-4 -14 2 -0.7638 -0.0867
-4 -14 3 -0.7028 -0.0398
-4 -14 4 -0.7037 0.0156
-4 -14 5 -0.8567 0.0376
-4 -14 6 -0.9990 0.0054
-4 -14 7 -0.8290 -0.0640
-4 -13 1 -0.7712 -0.0136
-4 -13 2 -1.0489 0.0192
-4 -13 3 -1.1419 0.0551
-4 -13 4 -0.9143 0.0830
-4 -13 5 -0.3461 0.0976
-4 -13 6 0.4470 0.0958
-4 -13 7 1.2737 0.0751
-4 -13 8 1.9704 0.0365
-4 -13 9 2.4756 -0.0094
-4 -13 10 2.8256 -0.0413
-4 -12 1 -0.4884 0.0485
-4 -12 2 -0.8967 0.0559
-4 -12 3 -1.0825 0.0238
-4 -12 4 -0.8800 -0.0330
-4 -12 5 -0.3077 -0.0743
-4 -12 6 0.3852 -0.0614
-4 -12 7 0.8200 0.0115
-4 -12 8 0.6952 0.1063
-4 -12 9 -0.0244 0.1609
-4 -12 10 -1.0604 0.1268
-4 -12 11 -1.9553 0.0015
-4 -12 12 -2.3171 -0.1666
-4 -11 1 -2.1103 -0.0399
-4 -11 2 -2.3367 -0.0041
-4 -11 3 -2.8030 0.0399
-4 -11 4 -3.3713 0.0577
-4 -11 5 -3.7079 0.0322
-4 -11 6 -3.4884 -0.0217
-4 -11 7 -2.6359 -0.0656
-4 -11 8 -1.4335 -0.0647
-4 -11 9 -0.4225 -0.0140
-4 -11 10 -0.1250 0.0541
-4 -11 11 -0.7461 0.0879
-4 -11 12 -2.0344 0.0484
-4 -11 13 -3.3898 -0.0659
-4 -11 14 -4.1638 -0.2174
-4 -10 1 -0.7267 -0.0399
-4 -10 2 -1.5353 -0.0011
-4 -10 3 -2.2779 0.0518
-4 -10 4 -2.9576 0.0993
-4 -10 5 -3.5049 0.1207
-4 -10 6 -3.7773 0.1050
-4 -10 7 -3.6187 0.0582
-4 -10 8 -2.9551 0.0012
-4 -10 9 -1.8760 -0.0408
-4 -10 10 -0.6493 -0.0511
-4 -10 11 0.3535 -0.0305
-4 -10 12 0.7993 0.0043
-4 -10 13 0.5358 0.0300
-4 -10 14 -0.3358 0.0313
-4 -10 15 -1.4992 0.0098
-4 -10 16 -2.5550 -0.0171
-4 -9 1 -3.7813 0.0242
-4 -9 2 -4.0624 0.0148
-4 -9 3 -3.8051 -0.0098
-4 -9 4 -2.8643 -0.0419
-4 -9 5 -1.3643 -0.0637
-4 -9 6 0.2906 -0.0601
-4 -9 7 1.5969 -0.0300
-4 -9 8 2.2201 0.0114
-4 -9 9 2.1738 0.0428
-4 -9 10 1.7881 0.0509
-4 -9 11 1.4820 0.0383
-4 -9 12 1.4907 0.0195
-4 -9 13 1.7266 0.0094
-4 -9 14 1.8605 0.0125
-4 -9 15 1.5638 0.0232
-4 -9 16 0.7436 0.0335
-4 -9 17 -0.3818 0.0435
-4 -8 1 -3.6921 0.0135
-4 -8 2 -3.9314 0.0131
-4 -8 3 -4.3819 0.0105
-4 -8 4 -4.5506 -0.0022
-4 -8 5 -3.9879 -0.0253
-4 -8 6 -2.5894 -0.0484
-4 -8 7 -0.6955 -0.0567
-4 -8 8 1.0822 -0.0418
-4 -8 9 2.2009 -0.0088
-4 -8 10 2.4776 0.0266
-4 -8 11 2.1507 0.0491
-4 -8 12 1.6866 0.0539
-4 -8 13 1.4724 0.0482
-4 -8 14 1.5982 0.0428
-4 -8 15 1.8625 0.0397
-4 -8 16 1.9687 0.0282
-4 -8 17 1.7603 -0.0077
-4 -8 18 1.3264 -0.0755
-4 -7 1 -6.0355 0.0026
-4 -7 2 -5.7587 0.0226
-4 -7 3 -5.4045 0.0486
-4 -7 4 -5.0661 0.0765
-4 -7 5 -4.6021 0.0961
-4 -7 6 -3.7723 0.0970
-4 -7 7 -2.4578 0.0751
-4 -7 8 -0.8059 0.0357
-4 -7 9 0.8026 -0.0092
-4 -7 10 1.9461 -0.0464
-4 -7 11 2.3814 -0.0665
-4 -7 12 2.1468 -0.0660
-4 -7 13 1.4902 -0.0459
-4 -7 14 0.6885 -0.0108
-4 -7 15 -0.1057 0.0316
-4 -7 16 -0.8850 0.0715
-4 -7 17 -1.6778 0.0993
-4 -7 18 -2.4137 0.1093
-4 -7 19 -2.8833 0.1039
-4 -7 20 -2.8404 0.0927
-4 -6 1 -4.6811 -0.0655
-4 -6 2 -5.9613 -0.0467
-4 -6 3 -6.4188 -0.0386
-4 -6 4 -6.0574 -0.0400
-4 -6 5 -5.0185 -0.0416
-4 -6 6 -3.5552 -0.0342
-4 -6 7 -1.9867 -0.0154
-4 -6 8 -0.6286 0.0096
-4 -6 9 0.2901 0.0318
-4 -6 10 0.6988 0.0440
-4 -6 11 0.7061 0.0431
-4 -6 12 0.5454 0.0296
-4 -6 13 0.4551 0.0059
-4 -6 14 0.5493 -0.0245
-4 -6 15 0.7518 -0.0562
-4 -6 16 0.8415 -0.0824
-4 -6 17 0.5941 -0.0964
-4 -6 18 -0.0587 -0.0967
-4 -6 19 -0.9517 -0.0887
-4 -6 20 -1.7454 -0.0836
-4 -5 1 -1.7388 0.0740
-4 -5 2 -3.5002 0.0568
-4 -5 3 -4.5682 0.0275
-4 -5 4 -4.8604 -0.0081
-4 -5 5 -4.4790 -0.0394
-4 -5 6 -3.6755 -0.0563
-4 -5 7 -2.7473 -0.0553
-4 -5 8 -1.9181 -0.0423
-4 -5 9 -1.2642 -0.0298
-4 -5 10 -0.7275 -0.0282
-4 -5 11 -0.2002 -0.0382
-4 -5 12 0.3737 -0.0491
-4 -5 13 0.9456 -0.0454
-4 -5 14 1.3881 -0.0172
-4 -5 15 1.5792 0.0315
-4 -5 16 1.4873 0.0838
-4 -5 17 1.1996 0.1189
-4 -5 18 0.8762 0.1234
-4 -5 19 0.6613 0.0989
-4 -5 20 0.6092 0.0593
-4 -5 21 0.6698 0.0230
-4 -4 1 2.2821 0.0628
-4 -4 2 0.0345 0.0613
-4 -4 3 -1.8151 0.0573
-4 -4 4 -3.1030 0.0522
-4 -4 5 -3.6817 0.0463
-4 -4 6 -3.4802 0.0411
-4 -4 7 -2.5824 0.0394
-4 -4 8 -1.2573 0.0433
-4 -4 9 0.1044 0.0519
-4 -4 10 1.1328 0.0605
-4 -4 11 1.6238 0.0631
-4 -4 12 1.6035 0.0567
-4 -4 13 1.2678 0.0434
-4 -4 14 0.8371 0.0288
-4 -4 15 0.4178 0.0181
-4 -4 16 -0.0412 0.0127
-4 -4 17 -0.6730 0.0102
-4 -4 18 -1.5539 0.0076
-4 -4 19 -2.5978 0.0052
-4 -4 20 -3.5592 0.0068
-4 -4 21 -4.1430 0.0160
-4 -4 22 -4.1562 0.0312
-4 -3 1 0.7248 -0.0853
-4 -3 2 -0.5873 -0.0773
-4 -3 3 -1.3855 -0.0555
-4 -3 4 -1.6970 -0.0245
-4 -3 5 -1.5986 0.0062
-4 -3 6 -1.1661 0.0251
-4 -3 7 -0.4789 0.0244
-4 -3 8 0.3442 0.0060
-4 -3 9 1.1376 -0.0189
-4 -3 10 1.7433 -0.0353
-4 -3 11 2.1006 -0.0342
-4 -3 12 2.2975 -0.0180
-4 -3 13 2.5199 0.0008
-4 -3 14 2.9092 0.0083
-4 -3 15 3.4169 -0.0016
-4 -3 16 3.7699 -0.0236
-4 -3 17 3.5998 -0.0449
-4 -3 18 2.6762 -0.0541
-4 -3 19 1.0997 -0.0475
-4 -3 20 -0.6837 -0.0298
-4 -3 21 -2.0778 -0.0088
-4 -3 22 -2.6379 0.0107
-4 -2 1 -6.8041 -0.0513
-4 -2 2 -8.2743 -0.0521
-4 -2 3 -8.4068 -0.0516
-4 -2 4 -7.4087 -0.0456
-4 -2 5 -5.7477 -0.0306
-4 -2 6 -3.9058 -0.0079
-4 -2 7 -2.1818 0.0153
-4 -2 8 -0.6466 0.0287
-4 -2 9 0.7515 0.0251
-4 -2 10 2.0311 0.0051
-4 -2 11 3.0941 -0.0224
-4 -2 12 3.7695 -0.0453
-4 -2 13 3.9408 -0.0548
-4 -2 14 3.6502 -0.0503
-4 -2 15 3.0929 -0.0380
-4 -2 16 2.5007 -0.0262
-4 -2 17 1.9990 -0.0196
-4 -2 18 1.5432 -0.0169
-4 -2 19 0.9817 -0.0123
-4 -2 20 0.2016 -0.0001
-4 -2 21 -0.7516 0.0222
-4 -2 22 -1.6659 0.0527
-4 -2 23 -2.2767 0.0863
-4 -1 1 -7.1049 0.1059
-4 -1 2 -9.6269 0.1118
-4 -1 3 -11.2260 0.0953
-4 -1 4 -11.7111 0.0546
-4 -1 5 -11.1424 0.0007
-4 -1 6 -9.7538 -0.0472
-4 -1 7 -7.8412 -0.0713
-4 -1 8 -5.6889 -0.0659
-4 -1 9 -3.5578 -0.0399
-4 -1 10 -1.6971 -0.0112
-4 -1 11 -0.3243 0.0048
-4 -1 12 0.4448 0.0041
-4 -1 13 0.6712 -0.0052
-4 -1 14 0.5962 -0.0105
-4 -1 15 0.5299 -0.0040
-4 -1 16 0.6669 0.0119
-4 -1 17 0.9424 0.0270
-4 -1 18 1.0408 0.0311
-4 -1 19 0.5808 0.0206
-4 -1 20 -0.6177 0.0008
-4 -1 21 -2.3521 -0.0187
-4 -1 22 -4.0699 -0.0295
-4 -1 23 -5.1204 -0.0289
-4 0 1 -3.5519 -0.0277
-4 0 2 -5.6842 -0.0385
-4 0 3 -7.3008 -0.0254
-4 0 4 -8.2068 0.0081
-4 0 5 -8.3232 0.0459
-4 0 6 -7.6952 0.0679
-4 0 7 -6.4657 0.0621
-4 0 8 -4.8422 0.0320
-4 0 9 -3.0735 -0.0049
-4 0 10 -1.4284 -0.0283
-4 0 11 -0.1564 -0.0274
-4 0 12 0.5760 -0.0067
-4 0 13 0.7486 0.0179
-4 0 14 0.5076 0.0303
-4 0 15 0.1104 0.0249
-4 0 16 -0.1899 0.0091
-4 0 17 -0.2623 -0.0031
-4 0 18 -0.1488 -0.0016
-4 0 19 -0.0158 0.0126
-4 0 20 -0.0336 0.0288
-4 0 21 -0.2612 0.0342
-4 0 22 -0.6060 0.0234
-4 0 23 -0.8844 0.0020
-4 1 1 -1.8787 -0.1463
-4 1 2 -3.1799 -0.1356
-4 1 3 -3.8916 -0.1087
-4 1 4 -3.9818 -0.0709
-4 1 5 -3.5351 -0.0309
-4 1 6 -2.7084 0.0011
-4 1 7 -1.6715 0.0175
-4 1 8 -0.5654 0.0175
-4 1 9 0.4998 0.0087
-4 1 10 1.4172 0.0028
-4 1 11 2.0616 0.0084
-4 1 12 2.3057 0.0252
-4 1 13 2.0769 0.0431
-4 1 14 1.4202 0.0486
-4 1 15 0.5155 0.0340
-4 1 16 -0.3762 0.0038
-4 1 17 -1.0171 -0.0273
-4 1 18 -1.2924 -0.0428
-4 1 19 -1.2459 -0.0358
-4 1 20 -1.0339 -0.0141
-4 1 21 -0.8290 0.0034
-4 1 22 -0.7321 -0.0026
-4 1 23 -0.7423 -0.0405
-4 2 1 -3.2806 0.0803
-4 2 2 -3.4448 0.1074
-4 2 3 -3.4222 0.1028
-4 2 4 -3.2840 0.0627
-4 2 5 -3.0393 0.0047
-4 2 6 -2.6355 -0.0426
-4 2 7 -1.9995 -0.0586
-4 2 8 -1.1029 -0.0427
-4 2 9 -0.0199 -0.0134
-4 2 10 1.0624 0.0059
-4 2 11 1.9039 0.0036
-4 2 12 2.3251 -0.0142
-4 2 13 2.3149 -0.0296
-4 2 14 2.0594 -0.0279
-4 2 15 1.8537 -0.0091
-4 2 16 1.9303 0.0131
-4 2 17 2.3016 0.0222
-4 2 18 2.7258 0.0121
-4 2 19 2.8361 -0.0082
-4 2 20 2.3705 -0.0205
-4 2 21 1.3629 -0.0112
-4 2 22 0.1657 0.0188
-4 2 23 -0.7250 0.0540
-4 3 1 -2.6511 0.0800
-4 3 2 -2.9752 0.0514
-4 3 3 -3.0076 0.0262
-4 3 4 -2.7549 0.0088
-4 3 5 -2.2674 -0.0022
-4 3 6 -1.5959 -0.0104
-4 3 7 -0.7497 -0.0178
-4 3 8 0.3007 -0.0227
-4 3 9 1.5585 -0.0219
-4 3 10 2.9152 -0.0141
-4 3 11 4.1141 -0.0016
-4 3 12 4.8181 0.0101
-4 3 13 4.7690 0.0160
-4 3 14 3.9518 0.0145
-4 3 15 2.6545 0.0085
-4 3 16 1.3604 0.0027
-4 3 17 0.5172 0.0011
-4 3 18 0.3073 0.0039
-4 3 19 0.5621 0.0086
-4 3 20 0.8765 0.0118
-4 3 21 0.8609 0.0120
-4 3 22 0.3766 0.0108
-4 3 23 -0.3890 0.0115
-4 4 1 -2.4884 -0.1433
-4 4 2 -2.8931 -0.1063
-4 4 3 -3.0237 -0.0547
-4 4 4 -2.7804 0.0008
-4 4 5 -2.1939 0.0457
-4 4 6 -1.4306 0.0677
-4 4 7 -0.7004 0.0633
-4 4 8 -0.1231 0.0401
-4 4 9 0.3505 0.0126
-4 4 10 0.8980 -0.0052
-4 4 11 1.6787 -0.0072
-4 4 12 2.6749 0.0033
-4 4 13 3.6335 0.0172
-4 4 14 4.1655 0.0264
-4 4 15 3.9572 0.0286
-4 4 16 2.9689 0.0274
-4 4 17 1.4952 0.0281
-4 4 18 0.0398 0.0328
-4 4 19 -0.9297 0.0383
-4 4 20 -1.2054 0.0386
-4 4 21 -0.9156 0.0290
-4 4 22 -0.4161 0.0095
-4 4 23 -0.0695 -0.0147
-4 5 1 -3.2066 0.0570
-4 5 2 -3.5351 0.0845
-4 5 3 -3.8815 0.0821
-4 5 4 -4.0475 0.0472
-4 5 5 -3.7910 -0.0025
-4 5 6 -3.0222 -0.0410
-4 5 7 -1.9078 -0.0504
-4 5 8 -0.8104 -0.0314
-4 5 9 -0.1016 -0.0022
-4 5 10 0.0366 0.0156
-4 5 11 -0.2976 0.0111
-4 5 12 -0.7894 -0.0101
-4 5 13 -1.0810 -0.0311
-4 5 14 -0.9513 -0.0375
-4 5 15 -0.4077 -0.0273
-4 5 16 0.3448 -0.0116
-4 5 17 1.0248 -0.0055
-4 5 18 1.4104 -0.0164
-4 5 19 1.4247 -0.0384
-4 5 20 1.1395 -0.0561
-4 5 21 0.7147 -0.0555
-4 5 22 0.3131 -0.0333
-4 6 1 0.1958 0.0898
-4 6 2 0.0134 0.0788
-4 6 3 0.1034 0.0605
-4 6 4 0.3321 0.0384
-4 6 5 0.5968 0.0158
-4 6 6 0.8452 -0.0036
-4 6 7 1.0622 -0.0161
-4 6 8 1.2422 -0.0188
-4 6 9 1.3645 -0.0126
-4 6 10 1.3831 -0.0025
-4 6 11 1.2384 0.0040
-4 6 12 0.8878 0.0014
-4 6 13 0.3467 -0.0107
-4 6 14 -0.2833 -0.0260
-4 6 15 -0.8260 -0.0356
-4 6 16 -1.0915 -0.0325
-4 6 17 -0.9674 -0.0167
-4 6 18 -0.4912 0.0047
-4 6 19 0.1447 0.0208
-4 6 20 0.6734 0.0231
-4 6 21 0.8826 0.0100
-4 6 22 0.7224 -0.0114
-4 7 1 -0.5466 -0.0739
-4 7 2 -0.5329 -0.0847
-4 7 3 -0.1821 -0.0757
-4 7 4 0.3431 -0.0462
-4 7 5 0.8173 -0.0087
-4 7 6 1.0778 0.0193
-4 7 7 1.1063 0.0267
-4 7 8 1.0264 0.0154
-4 7 9 1.0214 -0.0021
-4 7 10 1.2136 -0.0124
-4 7 11 1.5666 -0.0103
-4 7 12 1.8664 -0.0011
-4 7 13 1.8026 0.0046
-4 7 14 1.1248 -0.0005
-4 7 15 -0.1975 -0.0154
-4 7 16 -1.8992 -0.0321
-4 7 17 -3.4845 -0.0417
-4 7 18 -4.4210 -0.0409
-4 7 19 -4.3785 -0.0327
-4 7 20 -3.3899 -0.0236
-4 7 21 -1.8444 -0.0174
-4 8 1 -1.8100 0.0183
-4 8 2 -1.9264 0.0198
-4 8 3 -2.0993 0.0065
-4 8 4 -2.1831 -0.0184
-4 8 5 -2.0721 -0.0425
-4 8 6 -1.7661 -0.0521
-4 8 7 -1.3738 -0.0408
-4 8 8 -1.0520 -0.0142
-4 8 9 -0.9158 0.0140
-4 8 10 -0.9760 0.0303
-4 8 11 -1.1414 0.0290
-4 8 12 -1.2867 0.0139
-4 8 13 -1.3400 -0.0047
-4 8 14 -1.3325 -0.0177
-4 8 15 -1.3751 -0.0218
-4 8 16 -1.5716 -0.0198
-4 8 17 -1.9261 -0.0170
-4 8 18 -2.3060 -0.0173
-4 8 19 -2.4963 -0.0207
-4 8 20 -2.3171 -0.0251
-4 9 1 0.7482 0.1519
-4 9 2 1.1189 0.1338
-4 9 3 1.5922 0.0920
-4 9 4 1.9753 0.0380
-4 9 5 2.0562 -0.0128
-4 9 6 1.7036 -0.0474
-4 9 7 0.9589 -0.0600
-4 9 8 0.0604 -0.0535
-4 9 9 -0.6335 -0.0363
-4 9 10 -0.7986 -0.0188
-4 9 11 -0.2996 -0.0087
-4 9 12 0.7409 -0.0094
-4 9 13 1.9969 -0.0197
-4 9 14 3.0882 -0.0353
-4 9 15 3.7388 -0.0508
-4 9 16 3.8636 -0.0625
-4 9 17 3.5529 -0.0690
-4 9 18 2.9835 -0.0720
-4 9 19 2.3248 -0.0749
-4 10 1 -2.7060 -0.0818
-4 10 2 -2.4568 -0.0885
-4 10 3 -1.4274 -0.0699
-4 10 4 -0.0023 -0.0257
-4 10 5 1.2276 0.0263
-4 10 6 1.7551 0.0619
-4 10 7 1.4190 0.0664
-4 10 8 0.4930 0.0443
-4 10 9 -0.4510 0.0152
-4 10 10 -0.8422 0.0009
-4 10 11 -0.4115 0.0101
-4 10 12 0.6692 0.0341
-4 10 13 1.8869 0.0528
-4 10 14 2.6700 0.0482
-4 10 15 2.6926 0.0150
-4 10 16 2.0305 -0.0379
-4 10 17 1.0879 -0.0937
-4 10 18 0.3489 -0.1381
-4 11 1 -2.3320 -0.0704
-4 11 2 -2.5000 -0.0699
-4 11 3 -2.4277 -0.0681
-4 11 4 -1.9135 -0.0588
-4 11 5 -0.9675 -0.0380
-4 11 6 0.1323 -0.0089
-4 11 7 0.9451 0.0193
-4 11 8 1.0913 0.0367
-4 11 9 0.4721 0.0399
-4 11 10 -0.6497 0.0330
-4 11 11 -1.7694 0.0243
-4 11 12 -2.4006 0.0202
-4 11 13 -2.3289 0.0208
-4 11 14 -1.7089 0.0221
-4 11 15 -0.9515 0.0203
-4 11 16 -0.4724 0.0165
-4 12 1 -0.4262 0.1607
-4 12 2 -1.7184 0.1302
-4 12 3 -3.1438 0.0602
-4 12 4 -4.0592 -0.0103
-4 12 5 -3.9850 -0.0448
-4 12 6 -2.8822 -0.0325
-4 12 7 -1.2096 0.0068
-4 12 8 0.2750 0.0368
-4 12 9 0.8739 0.0298
-4 12 10 0.2790 -0.0153
-4 12 11 -1.2934 -0.0735
-4 12 12 -3.2213 -0.1106
-4 12 13 -4.7776 -0.1055
-4 13 1 0.5200 -0.0627
-4 13 2 -0.0668 -0.0943
-4 13 3 -0.4304 -0.1085
-4 13 4 -0.5492 -0.0949
-4 13 5 -0.4748 -0.0545
-4 13 6 -0.2616 -0.0016
-4 13 7 0.0755 0.0418
-4 13 8 0.5448 0.0571
-4 13 9 1.1188 0.0385
-4 13 10 1.6840 -0.0036
-3 -15 1 -3.8506 -0.1849
-3 -15 2 -3.2706 -0.1488
-3 -14 1 -0.0908 0.0643
-3 -14 2 -1.0943 0.1213
-3 -14 3 -1.6020 0.1466
-3 -14 4 -1.5052 0.1141
-3 -14 5 -0.9136 0.0360
-3 -14 6 -0.0406 -0.0426
-3 -14 7 0.9025 -0.0717
-3 -13 1 -0.7465 -0.0123
-3 -13 2 -1.4191 -0.0254
-3 -13 3 -1.8508 0.0101
-3 -13 4 -2.0945 0.0667
-3 -13 5 -2.1741 0.1006
-3 -13 6 -1.9830 0.0820
-3 -13 7 -1.3153 0.0164
-3 -13 8 -0.0275 -0.0553
-3 -13 9 1.7738 -0.0810
-3 -13 10 3.6668 -0.0289
-3 -12 1 1.3115 -0.1245
-3 -12 2 0.5572 -0.1120
-3 -12 3 -0.1842 -0.0767
-3 -12 4 -0.7136 -0.0281
-3 -12 5 -0.9038 0.0203
-3 -12 6 -0.7549 0.0538
-3 -12 7 -0.3656 0.0608
-3 -12 8 0.1529 0.0382
-3 -12 9 0.7481 -0.0043
-3 -12 10 1.4249 -0.0448
-3 -12 11 2.1740 -0.0577
-3 -12 12 2.8926 -0.0262
-3 -12 13 3.3764 0.0472
-3 -11 1 0.2737 0.0646
-3 -11 2 -0.6232 0.1006
-3 -11 3 -1.4640 0.0906
-3 -11 4 -2.0055 0.0305
-3 -11 5 -2.0987 -0.0481
-3 -11 6 -1.8024 -0.0977
-3 -11 7 -1.3705 -0.0872
-3 -11 8 -1.0997 -0.0244
-3 -11 9 -1.1325 0.0488
-3 -11 10 -1.3517 0.0825
-3 -11 11 -1.4501 0.0515
-3 -11 12 -1.1398 -0.0310
-3 -11 13 -0.3650 -0.1239
-3 -11 14 0.6262 -0.1867
-3 -10 1 0.1010 0.0098
-3 -10 2 -0.7779 0.0225
-3 -10 3 -2.0828 0.0518
-3 -10 4 -3.5888 0.0703
-3 -10 5 -4.8534 0.0554
-3 -10 6 -5.4144 0.0075
-3 -10 7 -5.0491 -0.0484
-3 -10 8 -3.9339 -0.0789
-3 -10 9 -2.5874 -0.0650
-3 -10 10 -1.6084 -0.0154
-3 -10 11 -1.3520 0.0393
-3 -10 12 -1.7344 0.0662
-3 -10 13 -2.2875 0.0502
-3 -10 14 -2.4328 0.0009
-3 -10 15 -1.8170 -0.0574
-3 -10 16 -0.5113 -0.1041
-3 -9 1 -0.5218 -0.1204
-3 -9 2 -1.2846 -0.1133
-3 -9 3 -1.8968 -0.0752
-3 -9 4 -2.4661 -0.0137
-3 -9 5 -3.0068 0.0504
-3 -9 6 -3.3910 0.0929
-3 -9 7 -3.4078 0.0990
-3 -9 8 -2.9010 0.0696
-3 -9 9 -1.9011 0.0198
-3 -9 10 -0.6656 -0.0298
-3 -9 11 0.4063 -0.0632
-3 -9 12 0.9459 -0.0738
-3 -9 13 0.7806 -0.0640
-3 -9 14 0.0047 -0.0390
-3 -9 15 -1.0782 -0.0021
-3 -9 16 -2.1017 0.0466
-3 -9 17 -2.7889 0.1069
-3 -9 18 -3.0338 0.1746
-3 -8 1 -2.3499 0.0383
-3 -8 2 -2.6794 0.0698
-3 -8 3 -2.7108 0.0697
-3 -8 4 -2.3155 0.0336
-3 -8 5 -1.4670 -0.0186
-3 -8 6 -0.3176 -0.0568
-3 -8 7 0.8422 -0.0596
-3 -8 8 1.7257 -0.0271
-3 -8 9 2.1964 0.0209
-3 -8 10 2.3199 0.0585
-3 -8 11 2.2855 0.0690
-3 -8 12 2.2553 0.0509
-3 -8 13 2.2484 0.0141
-3 -8 14 2.1402 -0.0298
-3 -8 15 1.7717 -0.0731
-3 -8 16 1.0870 -0.1115
-3 -8 17 0.1993 -0.1396
-3 -8 18 -0.6584 -0.1487
-3 -8 19 -1.2612 -0.1319
-3 -7 1 -2.9105 0.0766
-3 -7 2 -2.7309 0.0669
-3 -7 3 -2.7095 0.0575
-3 -7 4 -2.6896 0.0432
-3 -7 5 -2.4153 0.0219
-3 -7 6 -1.7299 -0.0005
-3 -7 7 -0.7157 -0.0134
-3 -7 8 0.3271 -0.0090
-3 -7 9 1.0557 0.0099
-3 -7 10 1.2947 0.0314
-3 -7 11 1.1412 0.0422
-3 -7 12 0.8952 0.0376
-3 -7 13 0.8679 0.0241
-3 -7 14 1.1990 0.0138
-3 -7 15 1.7992 0.0132
-3 -7 16 2.4414 0.0173
-3 -7 17 2.9182 0.0132
-3 -7 18 3.1511 -0.0085
-3 -7 19 3.1848 -0.0439
-3 -7 20 3.0950 -0.0759
-3 -6 1 -5.6866 -0.1080
-3 -6 2 -6.2938 -0.1273
-3 -6 3 -6.4249 -0.1222
-3 -6 4 -6.3392 -0.0854
-3 -6 5 -6.1338 -0.0275
-3 -6 6 -5.7032 0.0297
-3 -6 7 -4.8696 0.0656
-3 -6 8 -3.5739 0.0710
-3 -6 9 -1.9792 0.0503
-3 -6 10 -0.4136 0.0171
-3 -6 11 0.8017 -0.0140
-3 -6 12 1.5096 -0.0329
-3 -6 13 1.7521 -0.0355
-3 -6 14 1.6731 -0.0234
-3 -6 15 1.3808 -0.0022
-3 -6 16 0.8840 0.0196
-3 -6 17 0.1515 0.0340
-3 -6 18 -0.7633 0.0370
-3 -6 19 -1.6471 0.0322
-3 -6 20 -2.1844 0.0302
-3 -6 21 -2.1266 0.0427
-3 -5 1 -2.5460 0.0002
-3 -5 2 -4.9668 0.0254
-3 -5 3 -6.5253 0.0226
-3 -5 4 -7.0900 -0.0063
-3 -5 5 -6.7277 -0.0442
-3 -5 6 -5.6587 -0.0712
-3 -5 7 -4.1984 -0.0767
-3 -5 8 -2.6925 -0.0626
-3 -5 9 -1.4425 -0.0391
-3 -5 10 -0.6221 -0.0157
-3 -5 11 -0.2130 0.0035
-3 -5 12 -0.0103 0.0188
-3 -5 13 0.2773 0.0311
-3 -5 14 0.8576 0.0379
-3 -5 15 1.7030 0.0346
-3 -5 16 2.5174 0.0181
-3 -5 17 2.8660 -0.0100
-3 -5 18 2.4160 -0.0432
-3 -5 19 1.1547 -0.0736
-3 -5 20 -0.5520 -0.0950
-3 -5 21 -2.1098 -0.1051
-3 -4 1 0.7407 0.1531
-3 -4 2 -2.3387 0.1569
-3 -4 3 -4.5754 0.1370
-3 -4 4 -5.8214 0.0961
-3 -4 5 -6.1795 0.0474
-3 -4 6 -5.9191 0.0083
-3 -4 7 -5.3407 -0.0097
-3 -4 8 -4.6616 -0.0084
-3 -4 9 -3.9732 -0.0016
-3 -4 10 -3.2749 -0.0049
-3 -4 11 -2.5435 -0.0246
-3 -4 12 -1.7862 -0.0520
-3 -4 13 -1.0466 -0.0686
-3 -4 14 -0.3741 -0.0583
-3 -4 15 0.2069 -0.0190
-3 -4 16 0.6974 0.0349
-3 -4 17 1.0916 0.0805
-3 -4 18 1.3437 0.0999
-3 -4 19 1.3689 0.0904
-3 -4 20 1.0928 0.0649
-3 -4 21 0.5210 0.0436
-3 -4 22 -0.2201 0.0416
-3 -3 1 9.6159 -0.0476
-3 -3 2 5.5649 -0.0436
-3 -3 3 1.6795 -0.0230
-3 -3 4 -1.6614 0.0048
-3 -3 5 -4.1486 0.0258
-3 -3 6 -5.5724 0.0321
-3 -3 7 -5.8755 0.0265
-3 -3 8 -5.2001 0.0198
-3 -3 9 -3.8803 0.0211
-3 -3 10 -2.3551 0.0311
-3 -3 11 -1.0266 0.0418
-3 -3 12 -0.1310 0.0432
-3 -3 13 0.3076 0.0314
-3 -3 14 0.4157 0.0109
-3 -3 15 0.3415 -0.0092
-3 -3 16 0.1424 -0.0225
-3 -3 17 -0.2435 -0.0295
-3 -3 18 -0.9247 -0.0353
-3 -3 19 -1.9354 -0.0442
-3 -3 20 -3.1491 -0.0543
-3 -3 21 -4.2874 -0.0594
-3 -3 22 -5.0247 -0.0547
-3 -3 23 -5.1323 -0.0422
-3 -2 1 6.0213 -0.0449
-3 -2 2 3.6978 -0.0587
-3 -2 3 1.6190 -0.0584
-3 -2 4 -0.0546 -0.0387
-3 -2 5 -1.2367 -0.0052
-3 -2 6 -1.8726 0.0255
-3 -2 7 -1.9378 0.0352
-3 -2 8 -1.4805 0.0155
-3 -2 9 -0.6579 -0.0258
-3 -2 10 0.2887 -0.0687
-3 -2 11 1.1293 -0.0923
-3 -2 12 1.7553 -0.0877
-3 -2 13 2.2184 -0.0614
-3 -2 14 2.6538 -0.0300
-3 -2 15 3.1286 -0.0092
-3 -2 16 3.5215 -0.0048
-3 -2 17 3.5377 -0.0114
-3 -2 18 2.8742 -0.0182
-3 -2 19 1.4413 -0.0160
-3 -2 20 -0.5064 -0.0013
-3 -2 21 -2.4344 0.0251
-3 -2 22 -3.7675 0.0609
-3 -2 23 -4.1702 0.1033
-3 -1 1 -3.6625 0.0651
-3 -1 2 -5.9805 0.0521
-3 -1 3 -7.0790 0.0238
-3 -1 4 -7.0315 -0.0068
-3 -1 5 -6.2384 -0.0249
-3 -1 6 -5.1634 -0.0223
-3 -1 7 -4.0842 -0.0030
-3 -1 8 -3.0069 0.0192
-3 -1 9 -1.7819 0.0299
-3 -1 10 -0.3205 0.0229
-3 -1 11 1.2509 0.0035
-3 -1 12 2.6126 -0.0162
-3 -1 13 3.4326 -0.0261
-3 -1 14 3.5768 -0.0243
-3 -1 15 3.1971 -0.0174
-3 -1 16 2.6340 -0.0143
-3 -1 17 2.2016 -0.0199
-3 -1 18 2.0047 -0.0312
-3 -1 19 1.9089 -0.0399
-3 -1 20 1.6774 -0.0375
-3 -1 21 1.1687 -0.0203
-3 -1 22 0.4553 0.0098
-3 -1 23 -0.2185 0.0469
-3 0 1 -4.0398 -0.0519
-3 0 2 -7.4856 0.0199
-3 0 3 -10.0974 0.0827
-3 0 4 -11.5669 0.1053
-3 0 5 -11.8989 0.0791
-3 0 6 -11.3312 0.0228
-3 0 7 -10.1673 -0.0295
-3 0 8 -8.6357 -0.0502
-3 0 9 -6.8549 -0.0335
-3 0 10 -4.9002 0.0037
-3 0 11 -2.8943 0.0349
-3 0 12 -1.0325 0.0419
-3 0 13 0.4840 0.0249
-3 0 14 1.5521 -0.0007
-3 0 15 2.2149 -0.0171
-3 0 16 2.6034 -0.0159
-3 0 17 2.8038 -0.0019
-3 0 18 2.7578 0.0124
-3 0 19 2.2854 0.0170
-3 0 20 1.2386 0.0103
-3 0 21 -0.3144 -0.0016
-3 0 22 -2.0134 -0.0106
-3 0 23 -3.3192 -0.0122
-3 0 24 -3.7708 -0.0073
-3 1 1 -0.2084 -0.0475
-3 1 2 -3.1615 -0.0928
-3 1 3 -5.7865 -0.1008
-3 1 4 -7.7324 -0.0679
-3 1 5 -8.7812 -0.0114
-3 1 6 -8.8990 0.0404
-3 1 7 -8.2125 0.0645
-3 1 8 -6.9394 0.0557
-3 1 9 -5.3233 0.0270
-3 1 10 -3.6004 -0.0001
-3 1 11 -1.9893 -0.0094
-3 1 12 -0.6764 0.0002
-3 1 13 0.2186 0.0170
-3 1 14 0.6829 0.0258
-3 1 15 0.8184 0.0188
-3 1 16 0.7929 0.0001
-3 1 17 0.7511 -0.0183
-3 1 18 0.7349 -0.0257
-3 1 19 0.6701 -0.0197
-3 1 20 0.4320 -0.0066
-3 1 21 -0.0457 0.0038
-3 1 22 -0.6944 0.0059
-3 1 23 -1.3195 0.0017
-3 1 24 -1.6975 -0.0017
-3 2 1 -0.7701 -0.0064
-3 2 2 -2.6708 -0.0563
-3 2 3 -4.1650 -0.0917
-3 2 4 -5.0926 -0.0950
-3 2 5 -5.3982 -0.0648
-3 2 6 -5.1291 -0.0174
-3 2 7 -4.4013 0.0224
-3 2 8 -3.3582 0.0357
-3 2 9 -2.1481 0.0205
-3 2 10 -0.9267 -0.0085
-3 2 11 0.1336 -0.0301
-3 2 12 0.8576 -0.0310
-3 2 13 1.1165 -0.0135
-3 2 14 0.8926 0.0079
-3 2 15 0.3140 0.0171
-3 2 16 -0.3742 0.0087
-3 2 17 -0.9034 -0.0093
-3 2 18 -1.0938 -0.0222
-3 2 19 -0.9257 -0.0197
-3 2 20 -0.5301 -0.0045
-3 2 21 -0.1078 0.0094
-3 2 22 0.1746 0.0058
-3 2 23 0.2537 -0.0223
-3 2 24 0.1728 -0.0680
-3 3 1 -0.7633 0.0148
-3 3 2 -1.5563 0.1094
-3 3 3 -2.2566 0.1606
-3 3 4 -2.8613 0.1448
-3 3 5 -3.3161 0.0755
-3 3 6 -3.5333 -0.0068
-3 3 7 -3.4252 -0.0608
-3 3 8 -2.9403 -0.0680
-3 3 9 -2.0949 -0.0405
-3 3 10 -0.9930 -0.0081
-3 3 11 0.1819 0.0038
-3 3 12 1.2146 -0.0102
-3 3 13 1.9357 -0.0355
-3 3 14 2.2927 -0.0517
-3 3 15 2.3659 -0.0484
-3 3 16 2.3064 -0.0318
-3 3 17 2.2277 -0.0177
-3 3 18 2.1194 -0.0175
-3 3 19 1.8513 -0.0292
-3 3 20 1.2770 -0.0396
-3 3 21 0.3734 -0.0351
-3 3 22 -0.6819 -0.0126
-3 3 23 -1.5647 0.0178
-3 4 1 -0.9335 0.0309
-3 4 2 -1.6248 0.0237
-3 4 3 -2.0540 0.0143
-3 4 4 -2.1587 0.0041
-3 4 5 -1.9511 -0.0067
-3 4 6 -1.4967 -0.0172
-3 4 7 -0.8614 -0.0245
-3 4 8 -0.0681 -0.0248
-3 4 9 0.8966 -0.0165
-3 4 10 2.0209 -0.0018
-3 4 11 3.1946 0.0140
-3 4 12 4.1898 0.0258
-3 4 13 4.7340 0.0310
-3 4 14 4.6468 0.0309
-3 4 15 3.9586 0.0288
-3 4 16 2.9222 0.0276
-3 4 17 1.8923 0.0280
-3 4 18 1.1362 0.0291
-3 4 19 0.6940 0.0302
-3 4 20 0.3825 0.0317
-3 4 21 -0.0538 0.0358
-3 4 22 -0.7416 0.0440
-3 4 23 -1.5646 0.0563
-3 5 1 -1.8338 -0.0625
-3 5 2 -2.4489 -0.1083
-3 5 3 -3.0001 -0.1296
-3 5 4 -3.3162 -0.1141
-3 5 5 -3.2857 -0.0689
-3 5 6 -2.9136 -0.0155
-3 5 7 -2.3086 0.0228
-3 5 8 -1.6054 0.0342
-3 5 9 -0.8769 0.0226
-3 5 10 -0.0986 0.0023
-3 5 11 0.8019 -0.0118
-3 5 12 1.8414 -0.0130
-3 5 13 2.8960 -0.0042
-3 5 14 3.7067 0.0072
-3 5 15 3.9892 0.0155
-3 5 16 3.5921 0.0196
-3 5 17 2.6059 0.0222
-3 5 18 1.3458 0.0254
-3 5 19 0.2086 0.0281
-3 5 20 -0.5166 0.0272
-3 5 21 -0.7748 0.0201
-3 5 22 -0.7347 0.0079
-3 5 23 -0.6548 -0.0051
-3 6 1 -0.7137 0.0556
-3 6 2 -0.9615 0.1213
-3 6 3 -1.5016 0.1476
-3 6 4 -2.1898 0.1178
-3 6 5 -2.7339 0.0463
-3 6 6 -2.8839 -0.0313
-3 6 7 -2.5898 -0.0790
-3 6 8 -2.0303 -0.0809
-3 6 9 -1.4998 -0.0474
-3 6 10 -1.2312 -0.0052
-3 6 11 -1.2622 0.0210
-3 6 12 -1.4226 0.0229
-3 6 13 -1.4422 0.0098
-3 6 14 -1.1098 -0.0016
-3 6 15 -0.3923 -0.0005
-3 6 16 0.5463 0.0104
-3 6 17 1.4279 0.0188
-3 6 18 1.9922 0.0135
-3 6 19 2.1074 -0.0071
-3 6 20 1.8084 -0.0333
-3 6 21 1.2566 -0.0513
-3 6 22 0.6525 -0.0524
-3 7 1 0.6916 0.0004
-3 7 2 0.5005 0.0176
-3 7 3 0.7343 0.0348
-3 7 4 1.1924 0.0441
-3 7 5 1.6447 0.0409
-3 7 6 1.9119 0.0271
-3 7 7 1.9199 0.0094
-3 7 8 1.7120 -0.0041
-3 7 9 1.4138 -0.0095
-3 7 10 1.1616 -0.0093
-3 7 11 1.0281 -0.0097
-3 7 12 0.9885 -0.0166
-3 7 13 0.9507 -0.0306
-3 7 14 0.8316 -0.0463
-3 7 15 0.6306 -0.0555
-3 7 16 0.4416 -0.0519
-3 7 17 0.3905 -0.0352
-3 7 18 0.5350 -0.0111
-3 7 19 0.7990 0.0115
-3 7 20 0.9968 0.0248
-3 7 21 0.9401 0.0255
-3 7 22 0.5619 0.0161
-3 8 1 0.6686 -0.0414
-3 8 2 0.5027 -0.1258
-3 8 3 0.7181 -0.1699
-3 8 4 1.1535 -0.1536
-3 8 5 1.5457 -0.0896
-3 8 6 1.6711 -0.0133
-3 8 7 1.4555 0.0387
-3 8 8 1.0009 0.0485
-3 8 9 0.5250 0.0236
-3 8 10 0.2423 -0.0133
-3 8 11 0.2426 -0.0408
-3 8 12 0.4257 -0.0505
-3 8 13 0.5314 -0.0487
-3 8 14 0.2629 -0.0469
-3 8 15 -0.5476 -0.0516
-3 8 16 -1.8148 -0.0603
-3 8 17 -3.1925 -0.0648
-3 8 18 -4.2062 -0.0587
-3 8 19 -4.4687 -0.0424
-3 8 20 -3.8711 -0.0223
-3 8 21 -2.6429 -0.0060
-3 9 1 -1.0167 0.0378
-3 9 2 -1.2352 0.0591
-3 9 3 -1.5109 0.0608
-3 9 4 -1.7531 0.0440
-3 9 5 -1.8630 0.0204
-3 9 6 -1.7734 0.0044
-3 9 7 -1.4837 0.0036
-3 9 8 -1.0692 0.0143
-3 9 9 -0.6511 0.0251
-3 9 10 -0.3404 0.0235
-3 9 11 -0.1888 0.0040
-3 9 12 -0.1778 -0.0295
-3 9 13 -0.2534 -0.0665
-3 9 14 -0.3799 -0.0953
-3 9 15 -0.5720 -0.1083
-3 9 16 -0.8743 -0.1036
-3 9 17 -1.3013 -0.0842
-3 9 18 -1.7801 -0.0559
-3 9 19 -2.1480 -0.0259
-3 9 20 -2.2198 -0.0018
-3 10 1 1.3075 0.0514
-3 10 2 1.2027 0.0794
-3 10 3 1.2506 0.0763
-3 10 4 1.4057 0.0509
-3 10 5 1.5068 0.0230
-3 10 6 1.3763 0.0102
-3 10 7 0.9582 0.0174
-3 10 8 0.4019 0.0357
-3 10 9 0.0199 0.0486
-3 10 10 0.1285 0.0438
-3 10 11 0.8601 0.0198
-3 10 12 2.0630 -0.0140
-3 10 13 3.3551 -0.0438
-3 10 14 4.3005 -0.0602
-3 10 15 4.6083 -0.0622
-3 10 16 4.2420 -0.0553
-3 10 17 3.3905 -0.0462
-3 10 18 2.3394 -0.0385
-3 11 1 -2.5474 -0.0650
-3 11 2 -2.6496 -0.1280
-3 11 3 -1.8986 -0.1654
-3 11 4 -0.4389 -0.1556
-3 11 5 1.2006 -0.1032
-3 11 6 2.3484 -0.0342
-3 11 7 2.5396 0.0204
-3 11 8 1.7824 0.0417
-3 11 9 0.5793 0.0313
-3 11 10 -0.3239 0.0063
-3 11 11 -0.3328 -0.0139
-3 11 12 0.6767 -0.0193
-3 11 13 2.2955 -0.0131
-3 11 14 3.8061 -0.0072
-3 11 15 4.5640 -0.0132
-3 11 16 4.3151 -0.0363
-3 11 17 3.2790 -0.0735
-3 12 1 -0.9643 0.0190
-3 12 2 -1.1684 0.0333
-3 12 3 -1.5112 0.0239
-3 12 4 -1.7306 -0.0021
-3 12 5 -1.6230 -0.0297
-3 12 6 -1.2133 -0.0460
-3 12 7 -0.7917 -0.0462
-3 12 8 -0.7670 -0.0342
-3 12 9 -1.4138 -0.0185
-3 12 10 -2.6651 -0.0074
-3 12 11 -4.0923 -0.0065
-3 12 12 -5.1004 -0.0184
-3 12 13 -5.2334 -0.0435
-3 12 14 -4.4103 -0.0787
-3 12 15 -2.9565 -0.1163
-3 13 1 3.3388 0.1469
-3 13 2 2.4624 0.1779
-3 13 3 0.9684 0.1404
-3 13 4 -0.5155 0.0664
-3 13 5 -1.3092 0.0035
-3 13 6 -1.0453 -0.0173
-3 13 7 0.1084 0.0008
-3 13 8 1.5015 0.0270
-3 13 9 2.3091 0.0288
-3 13 10 1.9375 -0.0028
-3 13 11 0.3164 -0.0461
-3 13 12 -2.0690 -0.0640
-3 14 1 1.0097 0.0177
-3 14 2 0.4900 -0.0195
-3 14 3 0.3242 -0.0572
-3 14 4 0.5285 -0.0739
-3 14 5 0.9618 -0.0541
-3 14 6 1.4324 -0.0011
-3 14 7 1.8097 0.0596
-2 -15 1 -1.7711 0.0407
-2 -15 2 -1.3123 -0.0825
-2 -14 1 -2.7270 -0.0194
-2 -14 2 -2.3397 -0.0098
-2 -14 3 -2.1381 0.0023
-2 -14 4 -2.1821 0.0113
-2 -14 5 -2.2919 0.0225
-2 -14 6 -2.2129 0.0459
-2 -14 7 -1.8304 0.0825
-2 -13 1 0.0197 0.0204
-2 -13 2 -0.8757 0.1245
-2 -13 3 -1.4800 0.1975
-2 -13 4 -1.6307 0.1948
-2 -13 5 -1.3546 0.1152
-2 -13 6 -0.7792 0.0006
-2 -13 7 -0.0417 -0.0898
-2 -13 8 0.7495 -0.1155
-2 -13 9 1.5039 -0.0770
-2 -13 10 2.1269 -0.0113
-2 -12 1 1.2317 -0.0399
-2 -12 2 0.4478 -0.0637
-2 -12 3 -0.3612 -0.0405
-2 -12 4 -1.0883 0.0138
-2 -12 5 -1.6645 0.0610
-2 -12 6 -1.9662 0.0652
-2 -12 7 -1.7915 0.0175
-2 -12 8 -0.9614 -0.0568
-2 -12 9 0.5090 -0.1122
-2 -12 10 2.3000 -0.1090
-2 -12 11 3.8526 -0.0371
-2 -12 12 4.6096 0.0787
-2 -12 13 4.3057 0.1938
-2 -11 1 1.9654 -0.0900
-2 -11 2 1.1497 -0.1366
-2 -11 3 0.2365 -0.1557
-2 -11 4 -0.5618 -0.1407
-2 -11 5 -1.0771 -0.0978
-2 -11 6 -1.2534 -0.0447
-2 -11 7 -1.1353 -0.0031
-2 -11 8 -0.7915 0.0109
-2 -11 9 -0.2453 -0.0053
-2 -11 10 0.5247 -0.0392
-2 -11 11 1.5080 -0.0687
-2 -11 12 2.5732 -0.0734
-2 -11 13 3.4512 -0.0446
-2 -11 14 3.8296 0.0106
-2 -11 15 3.5167 0.0740
-2 -10 1 0.3877 0.0094
-2 -10 2 -0.5232 0.1112
-2 -10 3 -1.6181 0.1698
-2 -10 4 -2.6523 0.1540
-2 -10 5 -3.3476 0.0770
-2 -10 6 -3.5526 -0.0135
-2 -10 7 -3.3207 -0.0660
-2 -10 8 -2.8436 -0.0563
-2 -10 9 -2.2860 0.0006
-2 -10 10 -1.6482 0.0645
-2 -10 11 -0.7726 0.0980
-2 -10 12 0.4990 0.0876
-2 -10 13 2.1238 0.0465
-2 -10 14 3.7680 -0.0009
-2 -10 15 4.9167 -0.0384
-2 -10 16 5.1344 -0.0665
-2 -9 1 1.4989 -0.0109
-2 -9 2 0.7375 -0.0172
-2 -9 3 -0.5152 0.0036
-2 -9 4 -2.0925 0.0333
-2 -9 5 -3.5995 0.0476
-2 -9 6 -4.5590 0.0328
-2 -9 7 -4.6515 -0.0042
-2 -9 8 -3.9057 -0.0413
-2 -9 9 -2.7059 -0.0565
-2 -9 10 -1.5894 -0.0419
-2 -9 11 -0.9432 -0.0069
-2 -9 12 -0.7830 0.0307
-2 -9 13 -0.7542 0.0570
-2 -9 14 -0.3613 0.0697
-2 -9 15 0.7114 0.0750
-2 -9 16 2.3795 0.0785
-2 -9 17 4.1709 0.0789
-2 -9 18 5.4586 0.0692
-2 -8 1 0.6143 -0.0401
-2 -8 2 -0.1448 -0.1174
-2 -8 3 -0.6776 -0.1655
-2 -8 4 -1.1351 -0.1625
-2 -8 5 -1.6191 -0.1112
-2 -8 6 -2.0676 -0.0364
-2 -8 7 -2.2715 0.0292
-2 -8 8 -2.0155 0.0609
-2 -8 9 -1.2483 0.0524
-2 -8 10 -0.1645 0.0146
-2 -8 11 0.8648 -0.0319
-2 -8 12 1.4726 -0.0676
-2 -8 13 1.4809 -0.0804
-2 -8 14 0.9763 -0.0680
-2 -8 15 0.2382 -0.0357
-2 -8 16 -0.4260 0.0068
-2 -8 17 -0.8345 0.0484
-2 -8 18 -0.9828 0.0797
-2 -8 19 -0.9828 0.0952
-2 -7 1 0.0713 0.0182
-2 -7 2 -0.3558 0.1099
-2 -7 3 -0.7278 0.1572
-2 -7 4 -0.9686 0.1365
-2 -7 5 -0.9948 0.0623
-2 -7 6 -0.7882 -0.0243
-2 -7 7 -0.4272 -0.0812
-2 -7 8 -0.0517 -0.0883
-2 -7 9 0.2126 -0.0546
-2 -7 10 0.3185 -0.0078
-2 -7 11 0.3088 0.0250
-2 -7 12 0.2736 0.0317
-2 -7 13 0.2886 0.0166
-2 -7 14 0.3772 -0.0076
-2 -7 15 0.5141 -0.0305
-2 -7 16 0.6574 -0.0483
-2 -7 17 0.7762 -0.0609
-2 -7 18 0.8533 -0.0677
-2 -7 19 0.8710 -0.0654
-2 -7 20 0.8010 -0.0523
-2 -6 1 -2.8926 -0.0076
-2 -6 2 -3.0779 0.0025
-2 -6 3 -3.1086 0.0178
-2 -6 4 -3.0331 0.0294
-2 -6 5 -2.8318 0.0307
-2 -6 6 -2.4632 0.0242
-2 -6 7 -1.9402 0.0190
-2 -6 8 -1.3668 0.0239
-2 -6 9 -0.8990 0.0382
-2 -6 10 -0.6524 0.0510
-2 -6 11 -0.6216 0.0485
-2 -6 12 -0.6709 0.0250
-2 -6 13 -0.6013 -0.0117
-2 -6 14 -0.2519 -0.0446
-2 -6 15 0.4282 -0.0590
-2 -6 16 1.3694 -0.0519
-2 -6 17 2.4212 -0.0330
-2 -6 18 3.4016 -0.0155
-2 -6 19 4.1295 -0.0049
-2 -6 20 4.4425 0.0052
-2 -6 21 4.2258 0.0274
-2 -5 1 -2.2214 0.0046
-2 -5 2 -3.9734 -0.0936
-2 -5 3 -5.1771 -0.1640
-2 -5 4 -5.9967 -0.1785
-2 -5 5 -6.5897 -0.1388
-2 -5 6 -6.9488 -0.0707
-2 -5 7 -6.9085 -0.0074
-2 -5 8 -6.2949 0.0289
-2 -5 9 -5.0937 0.0340
-2 -5 10 -3.5096 0.0184
-2 -5 11 -1.8796 -0.0028
-2 -5 12 -0.5089 -0.0188
-2 -5 13 0.4501 -0.0256
-2 -5 14 1.0028 -0.0247
-2 -5 15 1.2226 -0.0202
-2 -5 16 1.1543 -0.0169
-2 -5 17 0.7948 -0.0190
-2 -5 18 0.1597 -0.0277
-2 -5 19 -0.6331 -0.0389
-2 -5 20 -1.3506 -0.0426
-2 -5 21 -1.7360 -0.0273
-2 -5 22 -1.6512 0.0118
-2 -4 1 -0.1087 0.0836
-2 -4 2 -3.3527 0.1458
-2 -4 3 -5.9171 0.1636
-2 -4 4 -7.4782 0.1345
-2 -4 5 -7.9712 0.0789
-2 -4 6 -7.5454 0.0244
-2 -4 7 -6.4812 -0.0103
-2 -4 8 -5.1109 -0.0229
-2 -4 9 -3.7512 -0.0224
-2 -4 10 -2.6363 -0.0186
-2 -4 11 -1.8523 -0.0144
-2 -4 12 -1.3033 -0.0057
-2 -4 13 -0.7562 0.0120
-2 -4 14 0.0254 0.0372
-2 -4 15 1.1097 0.0614
-2 -4 16 2.2904 0.0733
-2 -4 17 3.1350 0.0663
-2 -4 18 3.1905 0.0428
-2 -4 19 2.2469 0.0136
-2 -4 20 0.5032 -0.0073
-2 -4 21 -1.4789 -0.0086
-2 -4 22 -3.0237 0.0141
-2 -3 1 5.9622 -0.0133
-2 -3 2 1.5050 0.0373
-2 -3 3 -2.2402 0.0660
-2 -3 4 -4.9108 0.0614
-2 -3 5 -6.4931 0.0309
-2 -3 6 -7.2192 -0.0046
-2 -3 7 -7.3840 -0.0243
-2 -3 8 -7.1943 -0.0208
-2 -3 9 -6.7274 -0.0037
-2 -3 10 -5.9964 0.0083
-2 -3 11 -5.0486 0.0016
-2 -3 12 -4.0108 -0.0228
-2 -3 13 -3.0475 -0.0499
-2 -3 14 -2.2693 -0.0621
-2 -3 15 -1.6690 -0.0516
-2 -3 16 -1.1456 -0.0268
-2 -3 17 -0.6036 -0.0063
-2 -3 18 -0.0579 -0.0067
-2 -3 19 0.3416 -0.0301
-2 -3 20 0.3937 -0.0627
-2 -3 21 -0.0071 -0.0820
-2 -3 22 -0.7617 -0.0706
-2 -3 23 -1.5760 -0.0265
-2 -2 1 19.0859 -0.1882
-2 -2 2 14.1246 -0.1944
-2 -2 3 8.7813 -0.1516
-2 -2 4 3.7036 -0.0803
-2 -2 5 -0.5924 -0.0148
-2 -2 6 -3.7683 0.0193
-2 -2 7 -5.6762 0.0184
-2 -2 8 -6.3586 0.0003
-2 -2 9 -6.0343 -0.0119
-2 -2 10 -5.0523 -0.0055
-2 -2 11 -3.8055 0.0149
-2 -2 12 -2.6236 0.0337
-2 -2 13 -1.6918 0.0378
-2 -2 14 -1.0362 0.0261
-2 -2 15 -0.5868 0.0082
-2 -2 16 -0.2806 -0.0046
-2 -2 17 -0.1378 -0.0082
-2 -2 18 -0.2628 -0.0076
-2 -2 19 -0.7630 -0.0104
-2 -2 20 -1.6385 -0.0190
-2 -2 21 -2.7160 -0.0275
-2 -2 22 -3.6783 -0.0262
-2 -2 23 -4.1872 -0.0107
-2 -1 1 13.2700 0.0946
-2 -1 2 10.7602 0.0383
-2 -1 3 7.8675 -0.0120
-2 -1 4 4.9390 -0.0328
-2 -1 5 2.2796 -0.0177
-2 -1 6 0.1451 0.0184
-2 -1 7 -1.2692 0.0487
-2 -1 8 -1.8671 0.0516
-2 -1 9 -1.7025 0.0235
-2 -1 10 -0.9910 -0.0197
-2 -1 11 -0.0445 -0.0542
-2 -1 12 0.8528 -0.0627
-2 -1 13 1.5574 -0.0439
-2 -1 14 2.0897 -0.0105
-2 -1 15 2.5464 0.0203
-2 -1 16 2.9581 0.0373
-2 -1 17 3.1988 0.0384
-2 -1 18 3.0245 0.0291
-2 -1 19 2.2310 0.0160
-2 -1 20 0.8311 0.0048
-2 -1 21 -0.8763 0.0004
-2 -1 22 -2.4056 0.0083
-2 -1 23 -3.3094 0.0337
-2 -1 24 -3.3953 0.0762
-2 0 1 1.7690 0.2548
-2 0 2 -0.8434 0.2247
-2 0 3 -2.6936 0.1544
-2 0 4 -3.6899 0.0680
-2 0 5 -4.0729 -0.0035
-2 0 6 -4.1951 -0.0382
-2 0 7 -4.2574 -0.0346
-2 0 8 -4.1761 -0.0092
-2 0 9 -3.6707 0.0153
-2 0 10 -2.5112 0.0247
-2 0 11 -0.7528 0.0193
-2 0 12 1.2112 0.0106
-2 0 13 2.8242 0.0104
-2 0 14 3.6628 0.0216
-2 0 15 3.6639 0.0369
-2 0 16 3.1355 0.0452
-2 0 17 2.5516 0.0398
-2 0 18 2.2682 0.0228
-2 0 19 2.3425 0.0026
-2 0 20 2.5607 -0.0118
-2 0 21 2.6318 -0.0157
-2 0 22 2.4040 -0.0090
-2 0 23 1.9567 0.0062
-2 0 24 1.5200 0.0280
-2 1 1 0.8339 -0.3479
-2 1 2 -2.9275 -0.2081
-2 1 3 -6.0610 -0.0480
-2 1 4 -8.1626 0.0688
-2 1 5 -9.1794 0.1060
-2 1 6 -9.3667 0.0716
-2 1 7 -9.0925 0.0080
-2 1 8 -8.6102 -0.0366
-2 1 9 -7.9395 -0.0369
-2 1 10 -6.9238 -0.0011
-2 1 11 -5.4100 0.0402
-2 1 12 -3.4240 0.0572
-2 1 13 -1.2196 0.0399
-2 1 14 0.8241 0.0013
-2 1 15 2.3784 -0.0343
-2 1 16 3.2908 -0.0485
-2 1 17 3.5856 -0.0383
-2 1 18 3.3641 -0.0151
-2 1 19 2.7001 0.0059
-2 1 20 1.6216 0.0151
-2 1 21 0.1913 0.0117
-2 1 22 -1.3942 0.0011
-2 1 23 -2.7884 -0.0111
-2 1 24 -3.6094 -0.0217
-2 2 1 3.9641 0.0022
-2 2 2 0.8130 -0.0686
-2 2 3 -2.3459 -0.1047
-2 2 4 -5.0418 -0.0941
-2 2 5 -6.9278 -0.0494
-2 2 6 -7.8849 0.0020
-2 2 7 -8.0134 0.0344
-2 2 8 -7.5338 0.0375
-2 2 9 -6.6665 0.0191
-2 2 10 -5.5624 -0.0029
-2 2 11 -4.3091 -0.0137
-2 2 12 -2.9806 -0.0101
-2 2 13 -1.6749 -0.0003
-2 2 14 -0.5083 0.0042
-2 2 15 0.4265 -0.0025
-2 2 16 1.0939 -0.0170
-2 2 17 1.5080 -0.0299
-2 2 18 1.6886 -0.0331
-2 2 19 1.6218 -0.0252
-2 2 20 1.2647 -0.0121
-2 2 21 0.6035 -0.0014
-2 2 22 -0.2781 0.0026
-2 2 23 -1.1789 0.0016
-2 2 24 -1.8403 0.0010
-2 3 1 1.8406 0.3079
-2 3 2 -0.3846 0.1844
-2 3 3 -2.5414 0.0534
-2 3 4 -4.3238 -0.0365
-2 3 5 -5.5022 -0.0612
-2 3 6 -5.9784 -0.0311
-2 3 7 -5.7932 0.0178
-2 3 8 -5.0878 0.0466
-2 3 9 -4.0477 0.0362
-2 3 10 -2.8614 -0.0049
-2 3 11 -1.7023 -0.0504
-2 3 12 -0.7222 -0.0748
-2 3 13 -0.0357 -0.0695
-2 3 14 0.3102 -0.0451
-2 3 15 0.3630 -0.0208
-2 3 16 0.2599 -0.0097
-2 3 17 0.1772 -0.0107
-2 3 18 0.2511 -0.0124
-2 3 19 0.5100 -0.0041
-2 3 20 0.8614 0.0148
-2 3 21 1.1421 0.0335
-2 3 22 1.2060 0.0383
-2 3 23 1.0009 0.0227
-2 3 24 0.5922 -0.0070
-2 4 1 2.7614 -0.2471
-2 4 2 1.6502 -0.0736
-2 4 3 0.3842 0.0692
-2 4 4 -0.9001 0.1316
-2 4 5 -2.0007 0.1099
-2 4 6 -2.7366 0.0418
-2 4 7 -3.0185 -0.0202
-2 4 8 -2.8634 -0.0406
-2 4 9 -2.3579 -0.0180
-2 4 10 -1.6122 0.0215
-2 4 11 -0.7349 0.0469
-2 4 12 0.1645 0.0437
-2 4 13 0.9731 0.0202
-2 4 14 1.5908 -0.0028
-2 4 15 1.9603 -0.0096
-2 4 16 2.0857 -0.0003
-2 4 17 2.0141 0.0127
-2 4 18 1.7885 0.0160
-2 4 19 1.4102 0.0067
-2 4 20 0.8458 -0.0062
-2 4 21 0.0835 -0.0105
-2 4 22 -0.8042 -0.0009
-2 4 23 -1.6457 0.0167
-2 4 24 -2.2303 0.0308
-2 5 1 0.8458 -0.0754
-2 5 2 0.1180 -0.0644
-2 5 3 -0.5576 -0.0509
-2 5 4 -1.0401 -0.0396
-2 5 5 -1.2466 -0.0344
-2 5 6 -1.1766 -0.0343
-2 5 7 -0.8919 -0.0338
-2 5 8 -0.4644 -0.0273
-2 5 9 0.0708 -0.0137
-2 5 10 0.7193 0.0026
-2 5 11 1.4818 0.0142
-2 5 12 2.2956 0.0164
-2 5 13 3.0173 0.0102
-2 5 14 3.4725 0.0011
-2 5 15 3.5483 -0.0055
-2 5 16 3.2626 -0.0084
-2 5 17 2.7540 -0.0108
-2 5 18 2.1900 -0.0169
-2 5 19 1.6581 -0.0271
-2 5 20 1.1194 -0.0366
-2 5 21 0.4668 -0.0390
-2 5 22 -0.3496 -0.0306
-2 5 23 -1.2251 -0.0142
-2 6 1 -0.5740 0.2846
-2 6 2 -1.0094 0.1306
-2 6 3 -1.6067 -0.0148
-2 6 4 -2.2390 -0.1034
-2 6 5 -2.7468 -0.1188
-2 6 6 -2.9924 -0.0786
-2 6 7 -2.9075 -0.0195
-2 6 8 -2.5070 0.0247
-2 6 9 -1.8625 0.0388
-2 6 10 -1.0560 0.0280
-2 6 11 -0.1479 0.0079
-2 6 12 0.8167 -0.0075
-2 6 13 1.7712 -0.0134
-2 6 14 2.5980 -0.0133
-2 6 15 3.1422 -0.0131
-2 6 16 3.2750 -0.0154
-2 6 17 2.9698 -0.0191
-2 6 18 2.3397 -0.0210
-2 6 19 1.5976 -0.0195
-2 6 20 0.9577 -0.0150
-2 6 21 0.5342 -0.0085
-2 6 22 0.3019 -0.0004
-2 6 23 0.1428 0.0092
-2 7 1 0.9700 -0.1159
-2 7 2 0.7657 -0.0026
-2 7 3 0.1280 0.0819
-2 7 4 -0.8465 0.1034
-2 7 5 -1.8779 0.0624
-2 7 6 -2.6476 -0.0093
-2 7 7 -2.9561 -0.0688
-2 7 8 -2.8100 -0.0863
-2 7 9 -2.3926 -0.0597
-2 7 10 -1.9465 -0.0110
-2 7 11 -1.6381 0.0309
-2 7 12 -1.4811 0.0473
-2 7 13 -1.3542 0.0389
-2 7 14 -1.0953 0.0205
-2 7 15 -0.6130 0.0079
-2 7 16 0.0473 0.0075
-2 7 17 0.7183 0.0142
-2 7 18 1.1922 0.0182
-2 7 19 1.3240 0.0134
-2 7 20 1.0996 0.0025
-2 7 21 0.6369 -0.0062
-2 7 22 0.1247 -0.0059
-2 8 1 0.7364 -0.1974
-2 8 2 0.3517 -0.1523
-2 8 3 0.4547 -0.0879
-2 8 4 0.9009 -0.0254
-2 8 5 1.4288 0.0185
-2 8 6 1.7522 0.0385
-2 8 7 1.6763 0.0403
-2 8 8 1.1894 0.0353
-2 8 9 0.4771 0.0316
-2 8 10 -0.1628 0.0307
-2 8 11 -0.4695 0.0285
-2 8 12 -0.3520 0.0204
-2 8 13 0.0743 0.0065
-2 8 14 0.5689 -0.0080
-2 8 15 0.9120 -0.0159
-2 8 16 1.0191 -0.0126
-2 8 17 0.9534 0.0015
-2 8 18 0.8374 0.0219
-2 8 19 0.7366 0.0425
-2 8 20 0.6058 0.0588
-2 8 21 0.3370 0.0683
-2 9 1 1.0360 0.2278
-2 9 2 0.9525 0.0662
-2 9 3 1.3598 -0.0650
-2 9 4 2.1026 -0.1181
-2 9 5 2.8741 -0.0897
-2 9 6 3.3534 -0.0177
-2 9 7 3.3368 0.0461
-2 9 8 2.8166 0.0658
-2 9 9 1.9764 0.0382
-2 9 10 1.1089 -0.0121
-2 9 11 0.4853 -0.0531
-2 9 12 0.2305 -0.0657
-2 9 13 0.2664 -0.0513
-2 9 14 0.3551 -0.0254
-2 9 15 0.2334 -0.0037
-2 9 16 -0.2323 0.0080
-2 9 17 -0.9543 0.0148
-2 9 18 -1.6575 0.0260
-2 9 19 -2.0244 0.0469
-2 9 20 -1.8727 0.0756
-2 10 1 -0.2991 -0.0419
-2 10 2 -0.4628 0.0190
-2 10 3 -0.5923 0.0614
-2 10 4 -0.6961 0.0799
-2 10 5 -0.7617 0.0800
-2 10 6 -0.7346 0.0715
-2 10 7 -0.5510 0.0616
-2 10 8 -0.1994 0.0518
-2 10 9 0.2390 0.0391
-2 10 10 0.6118 0.0209
-2 10 11 0.7729 -0.0026
-2 10 12 0.6662 -0.0277
-2 10 13 0.3569 -0.0492
-2 10 14 -0.0109 -0.0625
-2 10 15 -0.3007 -0.0644
-2 10 16 -0.4552 -0.0520
-2 10 17 -0.5050 -0.0234
-2 10 18 -0.5180 0.0213
-2 10 19 -0.5312 0.0771
-2 11 1 2.0411 -0.1816
-2 11 2 1.7967 -0.1123
-2 11 3 1.7277 -0.0697
-2 11 4 1.9291 -0.0541
-2 11 5 2.2941 -0.0473
-2 11 6 2.5857 -0.0290
-2 11 7 2.6063 0.0069
-2 11 8 2.3505 0.0475
-2 11 9 2.0280 0.0706
-2 11 10 1.9328 0.0612
-2 11 11 2.2415 0.0237
-2 11 12 2.8751 -0.0196
-2 11 13 3.5209 -0.0417
-2 11 14 3.8040 -0.0281
-2 11 15 3.5017 0.0158
-2 11 16 2.6647 0.0689
-2 11 17 1.5769 0.1086
-2 11 18 0.5881 0.1241
-2 12 1 -1.9857 0.2342
-2 12 2 -2.7006 0.1102
-2 12 3 -2.6366 -0.0139
-2 12 4 -1.5740 -0.0937
-2 12 5 0.1888 -0.1081
-2 12 6 1.9413 -0.0672
-2 12 7 2.9228 -0.0039
-2 12 8 2.7428 0.0444
-2 12 9 1.6131 0.0539
-2 12 10 0.2436 0.0231
-2 12 11 -0.5460 -0.0302
-2 12 12 -0.2766 -0.0804
-2 12 13 0.9390 -0.1067
-2 12 14 2.4831 -0.1019
-2 12 15 3.5945 -0.0734
-2 12 16 3.7810 -0.0387
-2 13 1 1.8166 0.0639
-2 13 2 1.8529 0.1133
-2 13 3 1.3626 0.1242
-2 13 4 0.5282 0.0926
-2 13 5 -0.3319 0.0347
-2 13 6 -0.9799 -0.0223
-2 13 7 -1.4241 -0.0540
-2 13 8 -1.9126 -0.0491
-2 13 9 -2.7464 -0.0133
-2 13 10 -4.0291 0.0332
-2 13 11 -5.5265 0.0644
-2 13 12 -6.7384 0.0584
-2 13 13 -7.1536 0.0068
-2 14 1 3.7511 -0.0543
-2 14 2 3.7387 0.0536
-2 14 3 3.0438 0.0895
-2 14 4 2.0204 0.0589
-2 14 5 1.2464 0.0021
-2 14 6 1.2038 -0.0375
-2 14 7 1.9852 -0.0401
-2 14 8 3.2008 -0.0165
-2 14 9 4.1503 0.0080
-1 -15 1 1.8439 -0.2136
-1 -15 2 0.6533 -0.1721
-1 -14 1 0.0319 0.1826
-1 -14 2 0.2884 0.0572
-1 -14 3 0.1737 -0.0588
-1 -14 4 -0.1914 -0.1089
-1 -14 5 -0.6698 -0.0706
-1 -14 6 -1.1514 0.0303
-1 -14 7 -1.5466 0.1330
-1 -13 1 -0.9511 0.1217
-1 -13 2 -0.7292 0.0853
-1 -13 3 -0.8102 0.0370
-1 -13 4 -1.2906 -0.0104
-1 -13 5 -1.9745 -0.0387
-1 -13 6 -2.5324 -0.0349
-1 -13 7 -2.7354 -0.0016
-1 -13 8 -2.5988 0.0389
-1 -13 9 -2.3407 0.0548
-1 -13 10 -2.1987 0.0219
-1 -12 1 0.5575 -0.2535
-1 -12 2 0.1378 -0.0933
-1 -12 3 -0.3435 0.0557
-1 -12 4 -0.7601 0.1284
-1 -12 5 -1.0551 0.1034
-1 -12 6 -1.2055 0.0109
-1 -12 7 -1.1909 -0.0888
-1 -12 8 -0.9895 -0.1425
-1 -12 9 -0.5962 -0.1328
-1 -12 10 -0.0386 -0.0807
-1 -12 11 0.6245 -0.0259
-1 -12 12 1.3152 0.0017
-1 -11 1 1.6167 -0.0400
-1 -11 2 1.4500 -0.0861
-1 -11 3 1.0275 -0.0925
-1 -11 4 0.4361 -0.0589
-1 -11 5 -0.2616 -0.0103
-1 -11 6 -0.9509 0.0197
-1 -11 7 -1.4199 0.0100
-1 -11 8 -1.4240 -0.0346
-1 -11 9 -0.8414 -0.0867
-1 -11 10 0.1871 -0.1132
-1 -11 11 1.2581 -0.0947
-1 -11 12 1.8813 -0.0350
-1 -11 13 1.7462 0.0426
-1 -11 14 0.9130 0.1100
-1 -10 1 0.9142 0.2321
-1 -10 2 0.4267 0.1285
-1 -10 3 -0.1279 0.0276
-1 -10 4 -0.5892 -0.0396
-1 -10 5 -0.8399 -0.0587
-1 -10 6 -0.8539 -0.0362
-1 -10 7 -0.6766 0.0053
-1 -10 8 -0.3538 0.0398
-1 -10 9 0.1274 0.0498
-1 -10 10 0.8308 0.0336
-1 -10 11 1.7880 0.0034
-1 -10 12 2.9005 -0.0230
-1 -10 13 3.9085 -0.0324
-1 -10 14 4.4728 -0.0224
-1 -10 15 4.3388 -0.0012
-1 -10 16 3.4884 0.0179
-1 -9 1 -0.0904 -0.2470
-1 -9 2 -0.6781 -0.0674
-1 -9 3 -1.5385 0.0918
-1 -9 4 -2.5226 0.1686
-1 -9 5 -3.3711 0.1477
-1 -9 6 -3.8657 0.0636
-1 -9 7 -3.9489 -0.0244
-1 -9 8 -3.7176 -0.0681
-1 -9 9 -3.2962 -0.0544
-1 -9 10 -2.6950 -0.0051
-1 -9 11 -1.7766 0.0440
-1 -9 12 -0.3790 0.0676
-1 -9 13 1.4844 0.0625
-1 -9 14 3.4988 0.0424
-1 -9 15 5.1117 0.0224
-1 -9 16 5.7804 0.0076
-1 -9 17 5.2630 -0.0066
-1 -9 18 3.7723 -0.0261
-1 -8 1 0.9759 -0.0922
-1 -8 2 0.3002 -0.1083
-1 -8 3 -0.7066 -0.0915
-1 -8 4 -1.9476 -0.0501
-1 -8 5 -3.1466 -0.0061
-1 -8 6 -3.9278 0.0197
-1 -8 7 -4.0007 0.0195
-1 -8 8 -3.3409 0.0013
-1 -8 9 -2.2384 -0.0193
-1 -8 10 -1.1568 -0.0303
-1 -8 11 -0.4718 -0.0294
-1 -8 12 -0.2458 -0.0221
-1 -8 13 -0.1845 -0.0144
-1 -8 14 0.1869 -0.0074
-1 -8 15 1.2252 0.0018
-1 -8 16 2.9254 0.0154
-1 -8 17 4.8774 0.0309
-1 -8 18 6.4471 0.0420
-1 -8 19 7.0783 0.0444
-1 -7 1 3.0070 0.3028
-1 -7 2 1.8984 0.1418
-1 -7 3 0.9289 -0.0219
-1 -7 4 0.0123 -0.1324
-1 -7 5 -0.9501 -0.1627
-1 -7 6 -1.9140 -0.1232
-1 -7 7 -2.6619 -0.0504
-1 -7 8 -2.9274 0.0146
-1 -7 9 -2.5845 0.0453
-1 -7 10 -1.7677 0.0387
-1 -7 11 -0.8282 0.0102
-1 -7 12 -0.1487 -0.0177
-1 -7 13 0.0667 -0.0284
-1 -7 14 -0.1095 -0.0170
-1 -7 15 -0.4004 0.0091
-1 -7 16 -0.5145 0.0348
-1 -7 17 -0.3263 0.0444
-1 -7 18 0.0661 0.0278
-1 -7 19 0.4310 -0.0146
-1 -7 20 0.5688 -0.0720
-1 -6 1 1.4767 -0.1644
-1 -6 2 0.7565 -0.0037
-1 -6 3 -0.0847 0.1223
-1 -6 4 -0.9515 0.1662
-1 -6 5 -1.7242 0.1262
-1 -6 6 -2.2994 0.0408
-1 -6 7 -2.6292 -0.0379
-1 -6 8 -2.7387 -0.0738
-1 -6 9 -2.7098 -0.0624
-1 -6 10 -2.6385 -0.0251
-1 -6 11 -2.5867 0.0095
-1 -6 12 -2.5484 0.0248
-1 -6 13 -2.4473 0.0225
-1 -6 14 -2.1668 0.0155
-1 -6 15 -1.6042 0.0159
-1 -6 16 -0.7287 0.0261
-1 -6 17 0.3817 0.0402
-1 -6 18 1.5434 0.0508
-1 -6 19 2.5174 0.0560
-1 -6 20 3.0912 0.0601
-1 -6 21 3.1596 0.0683
-1 -5 1 -0.4496 -0.1847
-1 -5 2 -1.5206 -0.1526
-1 -5 3 -2.4015 -0.1043
-1 -5 4 -3.0757 -0.0582
-1 -5 5 -3.5604 -0.0286
-1 -5 6 -3.8596 -0.0176
-1 -5 7 -3.9552 -0.0147
-1 -5 8 -3.8324 -0.0065
-1 -5 9 -3.5130 0.0119
-1 -5 10 -3.0672 0.0323
-1 -5 11 -2.5913 0.0396
-1 -5 12 -2.1629 0.0234
-1 -5 13 -1.7983 -0.0126
-1 -5 14 -1.4338 -0.0521
-1 -5 15 -0.9474 -0.0770
-1 -5 16 -0.2151 -0.0792
-1 -5 17 0.8116 -0.0652
-1 -5 18 2.0423 -0.0495
-1 -5 19 3.2333 -0.0420
-1 -5 20 4.0479 -0.0399
-1 -5 21 4.1833 -0.0296
-1 -5 22 3.5181 0.0015
-1 -4 1 3.1572 0.3669
-1 -4 2 1.2800 0.1975
-1 -4 3 -0.4876 0.0398
-1 -4 4 -2.1133 -0.0559
-1 -4 5 -3.6385 -0.0774
-1 -4 6 -5.0147 -0.0478
-1 -4 7 -6.0401 -0.0056
-1 -4 8 -6.4444 0.0195
-1 -4 9 -6.0591 0.0189
-1 -4 10 -4.9477 0.0019
-1 -4 11 -3.4041 -0.0160
-1 -4 12 -1.8206 -0.0245
-1 -4 13 -0.5167 -0.0220
-1 -4 14 0.3646 -0.0125
-1 -4 15 0.8448 -0.0005
-1 -4 16 1.0171 0.0110
-1 -4 17 0.9568 0.0194
-1 -4 18 0.6976 0.0227
-1 -4 19 0.2745 0.0210
-1 -4 20 -0.2229 0.0196
-1 -4 21 -0.6469 0.0285
-1 -4 22 -0.8510 0.0571
-1 -3 1 3.7830 -0.0372
-1 -3 2 0.7541 0.0646
-1 -3 3 -2.1017 0.1210
-1 -3 4 -4.3312 0.1234
-1 -3 5 -5.7107 0.0898
-1 -3 6 -6.2412 0.0493
-1 -3 7 -6.0724 0.0228
-1 -3 8 -5.4189 0.0139
-1 -3 9 -4.5046 0.0129
-1 -3 10 -3.5302 0.0084
-1 -3 11 -2.6390 -0.0027
-1 -3 12 -1.8768 -0.0144
-1 -3 13 -1.1763 -0.0174
-1 -3 14 -0.4035 -0.0072
-1 -3 15 0.5332 0.0120
-1 -3 16 1.5672 0.0299
-1 -3 17 2.4369 0.0363
-1 -3 18 2.7802 0.0277
-1 -3 19 2.3304 0.0082
-1 -3 20 1.1032 -0.0118
-1 -3 21 -0.5480 -0.0206
-1 -3 22 -2.0626 -0.0098
-1 -3 23 -2.9292 0.0224
-1 -2 1 13.7279 -0.2784
-1 -2 2 8.8150 -0.1880
-1 -2 3 4.1394 -0.1029
-1 -2 4 0.2643 -0.0517
-1 -2 5 -2.6276 -0.0398
-1 -2 6 -4.6619 -0.0500
-1 -2 7 -6.0684 -0.0572
-1 -2 8 -6.9855 -0.0449
-1 -2 9 -7.3942 -0.0148
-1 -2 10 -7.2037 0.0173
-1 -2 11 -6.4083 0.0347
-1 -2 12 -5.1855 0.0318
-1 -2 13 -3.8575 0.0172
-1 -2 14 -2.7395 0.0056
-1 -2 15 -1.9807 0.0065
-1 -2 16 -1.5121 0.0166
-1 -2 17 -1.1370 0.0226
-1 -2 18 -0.6994 0.0115
-1 -2 19 -0.2096 -0.0188
-1 -2 20 0.1622 -0.0558
-1 -2 21 0.2200 -0.0789
-1 -2 22 -0.0928 -0.0711
-1 -2 23 -0.6170 -0.0288
-1 -1 3 17.2585 -0.2146
-1 -1 4 11.5214 -0.1156
-1 -1 5 6.3226 -0.0145
-1 -1 6 2.0746 0.0444
-1 -1 7 -1.0731 0.0472
-1 -1 8 -3.1586 0.0136
-1 -1 9 -4.3208 -0.0210
-1 -1 10 -4.7395 -0.0308
-1 -1 11 -4.6043 -0.0134
-1 -1 12 -4.0955 0.0134
-1 -1 13 -3.3642 0.0284
-1 -1 14 -2.5169 0.0226
-1 -1 15 -1.6217 0.0039
-1 -1 16 -0.7390 -0.0125
-1 -1 17 0.0385 -0.0161
-1 -1 18 0.5737 -0.0086
-1 -1 19 0.7215 0.0000
-1 -1 20 0.4084 0.0014
-1 -1 21 -0.2923 -0.0033
-1 -1 22 -1.1450 -0.0049
-1 -1 23 -1.8232 0.0053
-1 -1 24 -2.0466 0.0277
-1 0 3 15.5930 0.0914
-1 0 4 11.9829 0.0101
-1 0 5 8.2370 -0.0208
-1 0 6 4.8070 -0.0076
-1 0 7 2.0368 0.0229
-1 0 8 0.1380 0.0419
-1 0 9 -0.8354 0.0355
-1 0 10 -1.0001 0.0101
-1 0 11 -0.6143 -0.0157
-1 0 12 0.0109 -0.0254
-1 0 13 0.6276 -0.0147
-1 0 14 1.1339 0.0088
-1 0 15 1.5647 0.0327
-1 0 16 1.9929 0.0484
-1 0 17 2.4067 0.0537
-1 0 18 2.6538 0.0501
-1 0 19 2.5049 0.0383
-1 0 20 1.8045 0.0177
-1 0 21 0.6128 -0.0095
-1 0 22 -0.7659 -0.0353
-1 0 23 -1.9013 -0.0462
-1 0 24 -2.4424 -0.0313
-1 1 3 2.7869 0.2638
-1 1 4 1.0166 0.1289
-1 1 5 -0.3799 0.0092
-1 1 6 -1.5643 -0.0610
-1 1 7 -2.6536 -0.0747
-1 1 8 -3.5541 -0.0515
-1 1 9 -3.9656 -0.0214
-1 1 10 -3.5705 -0.0060
-1 1 11 -2.2855 -0.0080
-1 1 12 -0.4009 -0.0149
-1 1 13 1.5046 -0.0126
-1 1 14 2.8383 0.0035
-1 1 15 3.2932 0.0259
-1 1 16 2.9877 0.0421
-1 1 17 2.3591 0.0446
-1 1 18 1.8838 0.0348
-1 1 19 1.8047 0.0208
-1 1 20 2.0290 0.0096
-1 1 21 2.2459 0.0032
-1 1 22 2.1661 -0.0003
-1 1 23 1.7180 -0.0018
-1 1 24 1.0794 0.0019
-1 2 1 5.0061 -0.6272
-1 2 2 1.7510 -0.4502
-1 2 3 -1.3267 -0.2216
-1 2 4 -3.7312 -0.0268
-1 2 5 -5.2388 0.0748
-1 2 6 -5.9695 0.0766
-1 2 7 -6.2721 0.0200
-1 2 8 -6.4858 -0.0362
-1 2 9 -6.7232 -0.0514
-1 2 10 -6.8125 -0.0225
-1 2 11 -6.4354 0.0229
-1 2 12 -5.3670 0.0504
-1 2 13 -3.6610 0.0425
-1 2 14 -1.6618 0.0073
-1 2 15 0.1580 -0.0307
-1 2 16 1.4226 -0.0489
-1 2 17 1.9966 -0.0395
-1 2 18 1.9741 -0.0111
-1 2 19 1.5476 0.0198
-1 2 20 0.8701 0.0393
-1 2 21 0.0070 0.0417
-1 2 22 -1.0042 0.0288
-1 2 23 -2.0596 0.0058
-1 2 24 -2.9542 -0.0213
-1 3 1 6.7402 0.0992
-1 3 2 4.3192 0.0225
-1 3 3 1.4156 -0.0333
-1 3 4 -1.4938 -0.0527
-1 3 5 -3.9631 -0.0410
-1 3 6 -5.7282 -0.0176
-1 3 7 -6.7573 -0.0018
-1 3 8 -7.1834 -0.0020
-1 3 9 -7.1743 -0.0130
-1 3 10 -6.8267 -0.0236
-1 3 11 -6.1461 -0.0257
-1 3 12 -5.1074 -0.0199
-1 3 13 -3.7408 -0.0132
-1 3 14 -2.1748 -0.0128
-1 3 15 -0.6085 -0.0200
-1 3 16 0.7595 -0.0290
-1 3 17 1.7939 -0.0321
-1 3 18 2.4368 -0.0248
-1 3 19 2.6798 -0.0092
-1 3 20 2.5323 0.0073
-1 3 21 2.0234 0.0174
-1 3 22 1.2367 0.0179
-1 3 23 0.3408 0.0112
-1 3 24 -0.4309 0.0029
-1 4 1 3.5927 0.5879
-1 4 2 1.7721 0.4267
-1 4 3 -0.3534 0.2246
-1 4 4 -2.4504 0.0556
-1 4 5 -4.2000 -0.0306
-1 4 6 -5.3859 -0.0294
-1 4 7 -5.9408 0.0223
-1 4 8 -5.9317 0.0729
-1 4 9 -5.5019 0.0862
-1 4 10 -4.8068 0.0582
-1 4 11 -3.9741 0.0122
-1 4 12 -3.0957 -0.0217
-1 4 13 -2.2376 -0.0270
-1 4 14 -1.4452 -0.0090
-1 4 15 -0.7387 0.0142
-1 4 16 -0.1063 0.0265
-1 4 17 0.4864 0.0254
-1 4 18 1.0673 0.0208
-1 4 19 1.6218 0.0247
-1 4 20 2.0758 0.0404
-1 4 21 2.3165 0.0595
-1 4 22 2.2461 0.0683
-1 4 23 1.8411 0.0590
-1 4 24 1.1808 0.0353
-1 5 1 5.3709 -0.5884
-1 5 2 4.3991 -0.3786
-1 5 3 2.8694 -0.1655
-1 5 4 1.0480 -0.0178
-1 5 5 -0.6574 0.0381
-1 5 6 -1.8794 0.0242
-1 5 7 -2.4507 -0.0116
-1 5 8 -2.4476 -0.0271
-1 5 9 -2.1013 -0.0089
-1 5 10 -1.6489 0.0271
-1 5 11 -1.2217 0.0540
-1 5 12 -0.8286 0.0555
-1 5 13 -0.4212 0.0356
-1 5 14 0.0239 0.0121
-1 5 15 0.4660 0.0011
-1 5 16 0.8220 0.0048
-1 5 17 1.0161 0.0127
-1 5 18 1.0163 0.0123
-1 5 19 0.8336 0.0000
-1 5 20 0.5008 -0.0165
-1 5 21 0.0572 -0.0252
-1 5 22 -0.4454 -0.0208
-1 5 23 -0.9293 -0.0091
-1 5 24 -1.2957 -0.0020
-1 6 1 2.0154 -0.0738
-1 6 2 1.6356 -0.0670
-1 6 3 1.0182 -0.0475
-1 6 4 0.3217 -0.0251
-1 6 5 -0.2823 -0.0095
-1 6 6 -0.6758 -0.0033
-1 6 7 -0.8398 -0.0016
-1 6 8 -0.8424 0.0027
-1 6 9 -0.7746 0.0117
-1 6 10 -0.6787 0.0205
-1 6 11 -0.5200 0.0213
-1 6 12 -0.2219 0.0106
-1 6 13 0.2642 -0.0071
-1 6 14 0.9079 -0.0223
-1 6 15 1.6028 -0.0280
-1 6 16 2.2160 -0.0259
-1 6 17 2.6415 -0.0249
-1 6 18 2.8195 -0.0344
-1 6 19 2.7182 -0.0551
-1 6 20 2.3138 -0.0770
-1 6 21 1.6036 -0.0860
-1 6 22 0.6539 -0.0736
-1 6 23 -0.3600 -0.0448
-1 7 1 -0.1497 0.6416
-1 7 2 -0.1130 0.4374
-1 7 3 -0.2678 0.2053
-1 7 4 -0.6361 0.0218
-1 7 5 -1.1577 -0.0701
-1 7 6 -1.6792 -0.0741
-1 7 7 -2.0061 -0.0283
-1 7 8 -1.9930 0.0210
-1 7 9 -1.6161 0.0439
-1 7 10 -0.9797 0.0359
-1 7 11 -0.2550 0.0110
-1 7 12 0.4073 -0.0122
-1 7 13 0.9350 -0.0234
-1 7 14 1.3343 -0.0232
-1 7 15 1.6456 -0.0186
-1 7 16 1.8945 -0.0165
-1 7 17 2.0747 -0.0193
-1 7 18 2.1629 -0.0245
-1 7 19 2.1461 -0.0269
-1 7 20 2.0324 -0.0211
-1 7 21 1.8404 -0.0029
-1 7 22 1.5832 0.0292
-1 8 1 1.2581 -0.3894
-1 8 2 1.0147 -0.2456
-1 8 3 0.3639 -0.1019
-1 8 4 -0.6180 -0.0058
-1 8 5 -1.7102 0.0244
-1 8 6 -2.6254 0.0041
-1 8 7 -3.1208 -0.0312
-1 8 8 -3.0943 -0.0477
-1 8 9 -2.6220 -0.0319
-1 8 10 -1.9179 0.0067
-1 8 11 -1.2357 0.0456
-1 8 12 -0.7583 0.0655
-1 8 13 -0.5294 0.0616
-1 8 14 -0.4590 0.0437
-1 8 15 -0.3961 0.0269
-1 8 16 -0.2278 0.0213
-1 8 17 0.0522 0.0268
-1 8 18 0.3421 0.0370
-1 8 19 0.4952 0.0459
-1 8 20 0.4115 0.0535
-1 8 21 0.1010 0.0648
-1 8 22 -0.3135 0.0842
-1 9 1 -0.1458 -0.3065
-1 9 2 -0.7547 -0.2579
-1 9 3 -0.8883 -0.1742
-1 9 4 -0.5332 -0.0843
-1 9 5 0.1383 -0.0143
-1 9 6 0.8060 0.0243
-1 9 7 1.1317 0.0362
-1 9 8 0.9315 0.0350
-1 9 9 0.2873 0.0328
-1 9 10 -0.4815 0.0336
-1 9 11 -0.9859 0.0343
-1 9 12 -0.9797 0.0308
-1 9 13 -0.4892 0.0235
-1 9 14 0.2211 0.0178
-1 9 15 0.8175 0.0201
-1 9 16 1.0900 0.0324
-1 9 17 1.0434 0.0512
-1 9 18 0.8405 0.0699
-1 9 19 0.6526 0.0841
-1 9 20 0.5335 0.0944
-1 9 21 0.4055 0.1043
-1 10 1 -0.0082 0.5495
-1 10 2 -0.1315 0.3627
-1 10 3 0.2446 0.1711
-1 10 4 1.0662 0.0432
-1 10 5 2.1108 0.0030
-1 10 6 3.0577 0.0258
-1 10 7 3.5945 0.0607
-1 10 8 3.5302 0.0652
-1 10 9 2.8756 0.0286
-1 10 10 1.8504 -0.0277
-1 10 11 0.7994 -0.0694
-1 10 12 0.0456 -0.0731
-1 10 13 -0.2524 -0.0384
-1 10 14 -0.1593 0.0154
-1 10 15 0.0969 0.0648
-1 10 16 0.2709 0.0956
-1 10 17 0.2454 0.1088
-1 10 18 0.0854 0.1147
-1 10 19 -0.0295 0.1242
-1 10 20 0.0556 0.1423
-1 11 1 0.1313 -0.1987
-1 11 2 0.3441 -0.1169
-1 11 3 0.7196 -0.0414
-1 11 4 1.0769 0.0147
-1 11 5 1.2603 0.0463
-1 11 6 1.2471 0.0538
-1 11 7 1.1469 0.0404
-1 11 8 1.0985 0.0124
-1 11 9 1.1474 -0.0204
-1 11 10 1.1973 -0.0459
-1 11 11 1.0760 -0.0543
-1 11 12 0.6669 -0.0425
-1 11 13 0.0129 -0.0162
-1 11 14 -0.6818 0.0131
-1 11 15 -1.1563 0.0355
-1 11 16 -1.2329 0.0498
-1 11 17 -0.9068 0.0642
-1 11 18 -0.3346 0.0916
-1 12 1 1.2527 -0.2707
-1 12 2 0.9161 -0.1910
-1 12 3 0.8815 -0.1271
-1 12 4 1.3273 -0.0931
-1 12 5 2.1596 -0.0784
-1 12 6 3.0577 -0.0627
-1 12 7 3.6659 -0.0352
-1 12 8 3.8040 -0.0045
-1 12 9 3.5590 0.0090
-1 12 10 3.1966 -0.0089
-1 12 11 2.9573 -0.0511
-1 12 12 2.8792 -0.0888
-1 12 13 2.7703 -0.0887
-1 12 14 2.3508 -0.0346
-1 12 15 1.4681 0.0607
-1 12 16 0.2371 0.1606
-1 13 1 -1.1734 0.5083
-1 13 2 -3.0516 0.3690
-1 13 3 -4.3491 0.2024
-1 13 4 -4.3733 0.0611
-1 13 5 -3.0247 -0.0151
-1 13 6 -0.8878 -0.0159
-1 13 7 1.0616 0.0367
-1 13 8 1.9788 0.1005
-1 13 9 1.5991 0.1335
-1 13 10 0.3538 0.1134
-1 13 11 -0.9111 0.0466
-1 13 12 -1.4353 -0.0359
-1 13 13 -0.9620 -0.0945
-1 13 14 0.1657 -0.1001
-1 14 1 3.5094 -0.0799
-1 14 2 3.6967 -0.0029
-1 14 3 3.1873 0.0498
-1 14 4 2.0587 0.0565
-1 14 5 0.6504 0.0197
-1 14 6 -0.6319 -0.0360
-1 14 7 -1.5519 -0.0759
-1 14 8 -2.1586 -0.0732
-1 14 9 -2.7037 -0.0228
-1 14 10 -3.4176 0.0541
-1 14 11 -4.3022 0.1181
0 -14 1 2.3875 -0.4464
0 -14 2 1.5955 -0.3682
0 -14 3 0.0763 -0.2556
0 -14 4 -1.4450 -0.1360
0 -14 5 -2.5191 -0.0334
0 -14 6 -3.0951 0.0349
0 -13 1 0.9846 0.2349
0 -13 2 0.9455 0.1283
0 -13 3 0.5296 -0.0006
0 -13 4 -0.0826 -0.0926
0 -13 5 -0.7369 -0.1065
0 -13 6 -1.3648 -0.0429
0 -13 7 -1.9441 0.0558
0 -13 8 -2.4174 0.1296
0 -13 9 -2.6554 0.1354
0 -13 10 -2.5127 0.0693
0 -12 1 0.0487 0.2770
0 -12 2 0.1989 0.2273
0 -12 3 0.0438 0.1428
0 -12 4 -0.4913 0.0476
0 -12 5 -1.2141 -0.0269
0 -12 6 -1.8051 -0.0564
0 -12 7 -2.0306 -0.0368
0 -12 8 -1.8767 0.0124
0 -12 9 -1.5161 0.0583
0 -12 10 -1.1441 0.0719
0 -12 11 -0.8183 0.0437
0 -12 12 -0.4264 -0.0119
0 -11 1 0.4808 -0.5676
0 -11 2 0.6123 -0.3789
0 -11 3 0.4445 -0.1647
0 -11 4 0.0054 -0.0062
0 -11 5 -0.6082 0.0529
0 -11 6 -1.2585 0.0235
0 -11 7 -1.8136 -0.0428
0 -11 8 -2.1860 -0.0888
0 -11 9 -2.3399 -0.0843
0 -11 10 -2.2609 -0.0372
0 -11 11 -1.9195 0.0211
0 -11 12 -1.2699 0.0613
0 -11 13 -0.3013 0.0744
0 -11 14 0.8881 0.0727
0 -10 1 1.0397 0.1202
0 -10 2 1.5687 0.0464
0 -10 3 1.7721 -0.0047
0 -10 4 1.6110 -0.0176
0 -10 5 1.0848 0.0007
0 -10 6 0.2942 0.0277
0 -10 7 -0.5302 0.0406
0 -10 8 -1.0952 0.0299
0 -10 9 -1.1976 0.0029
0 -10 10 -0.8670 -0.0237
0 -10 11 -0.3896 -0.0354
0 -10 12 -0.1659 -0.0283
0 -10 13 -0.4741 -0.0102
0 -10 14 -1.2823 0.0059
0 -10 15 -2.2375 0.0098
0 -10 16 -2.8530 -0.0016
0 -9 1 0.5469 0.5132
0 -9 2 0.2290 0.3939
0 -9 3 -0.0869 0.2399
0 -9 4 -0.3257 0.1000
0 -9 5 -0.4725 0.0095
0 -9 6 -0.5660 -0.0219
0 -9 7 -0.6521 -0.0097
0 -9 8 -0.7249 0.0185
0 -9 9 -0.7004 0.0375
0 -9 10 -0.4541 0.0362
0 -9 11 0.0895 0.0190
0 -9 12 0.8700 -0.0011
0 -9 13 1.6681 -0.0114
0 -9 14 2.1812 -0.0076
0 -9 15 2.1638 0.0050
0 -9 16 1.5604 0.0144
0 -9 17 0.5515 0.0080
0 -8 1 -0.7258 -0.5994
0 -8 2 -1.1368 -0.3877
0 -8 3 -1.7067 -0.1540
0 -8 4 -2.3633 0.0186
0 -8 5 -2.9444 0.0862
0 -8 6 -3.3083 0.0598
0 -8 7 -3.4347 -0.0107
0 -8 8 -3.4298 -0.0695
0 -8 9 -3.4191 -0.0859
0 -8 10 -3.4079 -0.0635
0 -8 11 -3.2271 -0.0284
0 -8 12 -2.6271 -0.0062
0 -8 13 -1.4757 -0.0059
0 -8 14 0.0750 -0.0184
0 -8 15 1.5844 -0.0278
0 -8 16 2.5120 -0.0245
0 -8 17 2.5017 -0.0104
0 -8 18 1.5889 0.0062
0 -8 19 0.1991 0.0188
0 -7 1 0.8870 -0.0816
0 -7 2 -0.0252 -0.1012
0 -7 3 -1.1876 -0.0932
0 -7 4 -2.4914 -0.0594
0 -7 5 -3.7118 -0.0154
0 -7 6 -4.5471 0.0197
0 -7 7 -4.7485 0.0345
0 -7 8 -4.2698 0.0300
0 -7 9 -3.3341 0.0156
0 -7 10 -2.3482 0.0005
0 -7 11 -1.6933 -0.0112
0 -7 12 -1.5093 -0.0210
0 -7 13 -1.6057 -0.0306
0 -7 14 -1.5638 -0.0383
0 -7 15 -0.9783 -0.0396
0 -7 16 0.2980 -0.0315
0 -7 17 2.0451 -0.0163
0 -7 18 3.7618 -0.0009
0 -7 19 4.8954 0.0080
0 -7 20 5.0891 0.0091
0 -6 1 5.0639 0.6779
0 -6 2 3.9258 0.4958
0 -6 3 2.7060 0.2673
0 -6 4 1.3838 0.0693
0 -6 5 -0.0914 -0.0460
0 -6 6 -1.6388 -0.0696
0 -6 7 -2.9929 -0.0313
0 -6 8 -3.8137 0.0236
0 -6 9 -3.8897 0.0582
0 -6 10 -3.2932 0.0598
0 -6 11 -2.3687 0.0381
0 -6 12 -1.5503 0.0141
0 -6 13 -1.1223 0.0059
0 -6 14 -1.0748 0.0195
0 -6 15 -1.1458 0.0479
0 -6 16 -1.0154 0.0756
0 -6 17 -0.5229 0.0856
0 -6 18 0.2333 0.0667
0 -6 19 0.9670 0.0181
0 -6 20 1.3887 -0.0490
0 -6 21 1.3760 -0.1157
0 -5 1 3.2133 -0.4749
0 -5 2 2.4562 -0.2871
0 -5 3 1.3558 -0.1023
0 -5 4 0.0741 0.0165
0 -5 5 -1.2146 0.0481
0 -5 6 -2.3426 0.0164
0 -5 7 -3.1750 -0.0319
0 -5 8 -3.6427 -0.0570
0 -5 9 -3.7667 -0.0456
0 -5 10 -3.6511 -0.0117
0 -5 11 -3.4371 0.0196
0 -5 12 -3.2292 0.0308
0 -5 13 -3.0324 0.0217
0 -5 14 -2.7397 0.0051
0 -5 15 -2.1853 -0.0047
0 -5 16 -1.2453 -0.0023
0 -5 17 0.0683 0.0073
0 -5 18 1.5734 0.0148
0 -5 19 2.9698 0.0155
0 -5 20 3.9546 0.0127
0 -5 21 4.3433 0.0150
0 -5 22 4.1359 0.0286
0 -4 1 5.0122 -0.2471
0 -4 2 3.8062 -0.2101
0 -4 3 2.3847 -0.1437
0 -4 4 0.9052 -0.0750
0 -4 5 -0.5563 -0.0283
0 -4 6 -1.9411 -0.0118
0 -4 7 -3.1445 -0.0153
0 -4 8 -4.0077 -0.0195
0 -4 9 -4.3777 -0.0112
0 -4 10 -4.1986 0.0089
0 -4 11 -3.5705 0.0278
0 -4 12 -2.7280 0.0325
0 -4 13 -1.9369 0.0203
0 -4 14 -1.3619 0.0017
0 -4 15 -0.9821 -0.0083
0 -4 16 -0.6092 -0.0020
0 -4 17 -0.0104 0.0146
0 -4 18 0.9284 0.0264
0 -4 19 2.0913 0.0213
0 -4 20 3.1468 0.0007
0 -4 21 3.6929 -0.0191
0 -4 22 3.4652 -0.0171
0 -3 1 7.9749 0.6331
0 -3 2 7.3333 0.4369
0 -3 3 6.1455 0.2310
0 -3 4 4.5463 0.0805
0 -3 5 2.6355 0.0097
0 -3 6 0.5646 0.0010
0 -3 7 -1.3982 0.0156
0 -3 8 -2.9023 0.0212
0 -3 9 -3.6467 0.0069
0 -3 10 -3.5280 -0.0179
0 -3 11 -2.7053 -0.0379
0 -3 12 -1.5308 -0.0441
0 -3 13 -0.3893 -0.0381
0 -3 14 0.4607 -0.0263
0 -3 15 0.9538 -0.0135
0 -3 16 1.1707 -0.0003
0 -3 17 1.2296 0.0140
0 -3 18 1.1954 0.0268
0 -3 19 1.0630 0.0331
0 -3 20 0.8084 0.0303
0 -3 21 0.4542 0.0230
0 -3 22 0.0953 0.0224
0 -3 23 -0.1383 0.0397
0 -2 1 8.5413 -0.2359
0 -2 2 6.8114 -0.1257
0 -2 3 4.5870 -0.0498
0 -2 4 2.2943 -0.0198
0 -2 5 0.2657 -0.0217
0 -2 6 -1.3211 -0.0306
0 -2 7 -2.4178 -0.0280
0 -2 8 -3.0443 -0.0113
0 -2 9 -3.2473 0.0094
0 -2 10 -3.0948 0.0217
0 -2 11 -2.6826 0.0204
0 -2 12 -2.1203 0.0094
0 -2 13 -1.4930 -0.0023
0 -2 14 -0.8306 -0.0075
0 -2 15 -0.1219 -0.0040
0 -2 16 0.6227 0.0052
0 -2 17 1.3049 0.0147
0 -2 18 1.7301 0.0198
0 -2 19 1.6881 0.0171
0 -2 20 1.0855 0.0057
0 -2 21 0.0471 -0.0127
0 -2 22 -1.0933 -0.0330
0 -2 23 -1.9265 -0.0475
0 -1 3 10.9787 -0.1878
0 -1 4 6.9004 -0.0974
0 -1 5 3.4162 -0.0488
0 -1 6 0.5117 -0.0338
0 -1 7 -1.9614 -0.0303
0 -1 8 -4.0707 -0.0195
0 -1 9 -5.6939 0.0033
0 -1 10 -6.5843 0.0290
0 -1 11 -6.5608 0.0450
0 -1 12 -5.6820 0.0454
0 -1 13 -4.2795 0.0354
0 -1 14 -2.8178 0.0257
0 -1 15 -1.6708 0.0242
0 -1 16 -0.9568 0.0299
0 -1 17 -0.5366 0.0345
0 -1 18 -0.1641 0.0292
0 -1 19 0.3173 0.0118
0 -1 20 0.8661 -0.0099
0 -1 21 1.2875 -0.0232
0 -1 22 1.3895 -0.0171
0 -1 23 1.1346 0.0106
0 -1 24 0.6823 0.0517
0 0 4 18.2667 -0.0583
0 0 5 13.1613 0.0420
0 0 6 8.7593 0.0972
0 0 7 5.1801 0.0867
0 0 8 2.3137 0.0296
0 0 9 -0.0065 -0.0328
0 0 10 -1.8741 -0.0657
0 0 11 -3.2733 -0.0605
0 0 12 -4.1279 -0.0347
0 0 13 -4.3808 -0.0150
0 0 14 -4.0530 -0.0171
0 0 15 -3.2547 -0.0369
0 0 16 -2.1628 -0.0574
0 0 17 -0.9855 -0.0628
0 0 18 0.0685 -0.0499
0 0 19 0.8200 -0.0282
0 0 20 1.1556 -0.0107
0 0 21 1.0657 -0.0036
0 0 22 0.6641 -0.0034
0 0 23 0.1610 -0.0013
0 0 24 -0.2130 0.0079
0 1 3 20.9897 0.1863
0 1 4 17.5276 0.0690
0 1 5 13.5118 -0.0028
0 1 6 9.5377 -0.0252
0 1 7 6.0458 -0.0168
0 1 8 3.2984 -0.0030
0 1 9 1.3972 0.0006
0 1 10 0.3061 -0.0060
0 1 11 -0.1260 -0.0132
0 1 12 -0.1218 -0.0123
0 1 13 0.0950 -0.0031
0 1 14 0.3768 0.0075
0 1 15 0.6872 0.0132
0 1 16 1.0640 0.0138
0 1 17 1.5250 0.0150
0 1 18 1.9826 0.0213
0 1 19 2.2351 0.0303
0 1 20 2.0590 0.0330
0 1 21 1.3528 0.0205
0 1 22 0.2402 -0.0065
0 1 23 -0.9477 -0.0354
0 1 24 -1.8144 -0.0479
0 2 0 9.4009 0.3422
0 2 1 9.2225 0.3970
0 2 2 8.1199 0.3689
0 2 3 6.4240 0.2621
0 2 4 4.5154 0.1163
0 2 5 2.6575 -0.0138
0 2 6 0.9388 -0.0873
0 2 7 -0.6474 -0.0957
0 2 8 -2.0593 -0.0622
0 2 9 -3.1193 -0.0228
0 2 10 -3.5677 -0.0034
0 2 11 -3.2317 -0.0072
0 2 12 -2.1916 -0.0197
0 2 13 -0.8121 -0.0236
0 2 14 0.4068 -0.0133
0 2 15 1.0796 0.0029
0 2 16 1.1309 0.0118
0 2 17 0.8078 0.0067
0 2 18 0.5006 -0.0078
0 2 19 0.4859 -0.0206
0 2 20 0.7592 -0.0243
0 2 21 1.0580 -0.0208
0 2 22 1.0539 -0.0184
0 2 23 0.5803 -0.0230
0 2 24 -0.2513 -0.0313
0 3 0 7.8860 -0.7421
0 3 1 6.9251 -0.7134
0 3 2 5.1334 -0.5536
0 3 3 2.8088 -0.3247
0 3 4 0.4333 -0.1129
0 3 5 -1.5270 0.0152
0 3 6 -2.8314 0.0432
0 3 7 -3.5497 0.0045
0 3 8 -3.9618 -0.0447
0 3 9 -4.3383 -0.0609
0 3 10 -4.7489 -0.0352
0 3 11 -5.0257 0.0103
0 3 12 -4.9016 0.0437
0 3 13 -4.2218 0.0465
0 3 14 -3.0792 0.0237
0 3 15 -1.7812 -0.0039
0 3 16 -0.6770 -0.0164
0 3 17 0.0335 -0.0066
0 3 18 0.3779 0.0177
0 3 19 0.5356 0.0421
0 3 20 0.6744 0.0549
0 3 21 0.8232 0.0520
0 3 22 0.8688 0.0348
0 3 23 0.6683 0.0074
0 3 24 0.1873 -0.0260
0 4 0 5.7579 0.2401
0 4 1 5.7836 0.1950
0 4 2 4.9351 0.1328
0 4 3 3.2590 0.0769
0 4 4 1.0151 0.0400
0 4 5 -1.4098 0.0212
0 4 6 -3.6386 0.0110
0 4 7 -5.4172 0.0012
0 4 8 -6.6481 -0.0090
0 4 9 -7.3421 -0.0146
0 4 10 -7.5366 -0.0111
0 4 11 -7.2429 0.0002
0 4 12 -6.4565 0.0121
0 4 13 -5.2098 0.0164
0 4 14 -3.6202 0.0100
0 4 15 -1.8879 -0.0025
0 4 16 -0.2406 -0.0125
0 4 17 1.1368 -0.0134
0 4 18 2.1441 -0.0043
0 4 19 2.7581 0.0093
0 4 20 2.9945 0.0203
0 4 21 2.8810 0.0240
0 4 22 2.4642 0.0203
0 4 23 1.8398 0.0121
0 4 24 1.1671 0.0028
0 5 0 3.4960 0.5882
0 5 1 3.2281 0.5755
0 5 2 2.4130 0.4393
0 5 3 1.1453 0.2359
0 5 4 -0.4034 0.0462
0 5 5 -2.0233 -0.0650
0 5 6 -3.5166 -0.0792
0 5 7 -4.7369 -0.0259
0 5 8 -5.6040 0.0413
0 5 9 -6.0941 0.0778
0 5 10 -6.2175 0.0700
0 5 11 -6.0021 0.0356
0 5 12 -5.4884 0.0047
0 5 13 -4.7331 -0.0026
0 5 14 -3.8088 0.0132
0 5 15 -2.7952 0.0355
0 5 16 -1.7627 0.0469
0 5 17 -0.7623 0.0419
0 5 18 0.1710 0.0285
0 5 19 1.0005 0.0200
0 5 20 1.6718 0.0237
0 5 21 2.1120 0.0357
0 5 22 2.2541 0.0452
0 5 23 2.0737 0.0429
0 5 24 1.6179 0.0288
0 6 0 5.9775 -0.7472
0 6 1 6.3697 -0.6800
0 6 2 5.9528 -0.5070
0 6 3 4.6592 -0.2964
0 6 4 2.7503 -0.1194
0 6 5 0.7369 -0.0170
0 6 6 -0.8510 0.0128
0 6 7 -1.7098 0.0029
0 6 8 -1.8746 -0.0099
0 6 9 -1.6426 -0.0071
0 6 10 -1.3664 0.0063
0 6 11 -1.2523 0.0133
0 6 12 -1.2811 0.0030
0 6 13 -1.2791 -0.0199
0 6 14 -1.0725 -0.0397
0 6 15 -0.6157 -0.0432
0 6 16 -0.0208 -0.0303
0 6 17 0.5134 -0.0136
0 6 18 0.8126 -0.0074
0 6 19 0.8059 -0.0157
0 6 20 0.5379 -0.0294
0 6 21 0.1261 -0.0332
0 6 22 -0.2961 -0.0189
0 6 23 -0.6189 0.0075
0 7 0 1.5134 0.0478
0 7 1 1.8331 0.0204
0 7 2 1.8249 0.0140
0 7 3 1.5049 0.0287
0 7 4 0.9700 0.0515
0 7 5 0.3894 0.0669
0 7 6 -0.0694 0.0672
0 7 7 -0.3341 0.0559
0 7 8 -0.4700 0.0422
0 7 9 -0.6317 0.0320
0 7 10 -0.9469 0.0236
0 7 11 -1.4092 0.0112
0 7 12 -1.8529 -0.0072
0 7 13 -2.0288 -0.0245
0 7 14 -1.7352 -0.0287
0 7 15 -0.9266 -0.0125
0 7 16 0.2561 0.0185
0 7 17 1.5386 0.0465
0 7 18 2.6093 0.0534
0 7 19 3.2094 0.0344
0 7 20 3.1938 0.0040
0 7 21 2.5610 -0.0120
0 7 22 1.4608 0.0067
0 7 23 0.1741 0.0599
0 8 0 -0.4276 0.7058
0 8 1 -0.1489 0.6654
0 8 2 0.1414 0.4989
0 8 3 0.3608 0.2762
0 8 4 0.3665 0.0798
0 8 5 0.0785 -0.0352
0 8 6 -0.4232 -0.0610
0 8 7 -0.9081 -0.0306
0 8 8 -1.1167 0.0089
0 8 9 -0.9178 0.0236
0 8 10 -0.3947 0.0066
0 8 11 0.1988 -0.0263
0 8 12 0.5870 -0.0527
0 8 13 0.6325 -0.0576
0 8 14 0.4093 -0.0406
0 8 15 0.1525 -0.0123
0 8 16 0.1201 0.0131
0 8 17 0.4541 0.0248
0 8 18 1.1123 0.0193
0 8 19 1.8982 0.0015
0 8 20 2.5561 -0.0170
0 8 21 2.8789 -0.0215
0 8 22 2.7811 -0.0001
0 9 0 0.7610 -0.5566
0 9 1 0.7751 -0.5091
0 9 2 0.5323 -0.3889
0 9 3 0.0289 -0.2389
0 9 4 -0.6787 -0.1060
0 9 5 -1.4700 -0.0215
0 9 6 -2.1691 0.0100
0 9 7 -2.5807 0.0069
0 9 8 -2.5587 -0.0040
0 9 9 -2.0816 -0.0033
0 9 10 -1.2904 0.0127
0 9 11 -0.4527 0.0345
0 9 12 0.1457 0.0492
0 9 13 0.3326 0.0504
0 9 14 0.1332 0.0416
0 9 15 -0.2462 0.0318
0 9 16 -0.5302 0.0283
0 9 17 -0.5220 0.0315
0 9 18 -0.2045 0.0365
0 9 19 0.2600 0.0386
0 9 20 0.6284 0.0392
0 9 21 0.7124 0.0466
0 10 0 0.2397 -0.1849
0 10 1 -0.7250 -0.2099
0 10 2 -1.6538 -0.1827
0 10 3 -2.2755 -0.1160
0 10 4 -2.3619 -0.0397
0 10 5 -1.8712 0.0162
0 10 6 -1.0161 0.0369
0 10 7 -0.1829 0.0276
0 10 8 0.2696 0.0057
0 10 9 0.2122 -0.0123
0 10 10 -0.1859 -0.0206
0 10 11 -0.5746 -0.0238
0 10 12 -0.6525 -0.0297
0 10 13 -0.3586 -0.0408
0 10 14 0.1013 -0.0526
0 10 15 0.4083 -0.0572
0 10 16 0.3539 -0.0516
0 10 17 -0.0194 -0.0406
0 10 18 -0.4546 -0.0336
0 10 19 -0.6598 -0.0370
0 10 20 -0.5034 -0.0489
0 11 0 0.0962 0.6544
0 11 1 -0.4292 0.6078
0 11 2 -0.9314 0.4567
0 11 3 -1.2230 0.2718
0 11 4 -1.1485 0.1247
0 11 5 -0.6590 0.0519
0 11 6 0.1301 0.0429
0 11 7 0.9468 0.0567
0 11 8 1.4602 0.0539
0 11 9 1.4343 0.0215
0 11 10 0.8562 -0.0237
0 11 11 -0.0435 -0.0514
0 11 12 -0.9025 -0.0410
0 11 13 -1.4119 0.0051
0 11 14 -1.4656 0.0649
0 11 15 -1.1841 0.1119
0 11 16 -0.8043 0.1305
0 11 17 -0.5144 0.1225
0 11 18 -0.3465 0.1014
0 11 19 -0.1937 0.0831
0 12 0 -0.1039 -0.2832
0 12 1 0.0736 -0.2510
0 12 2 0.7181 -0.1934
0 12 3 1.6718 -0.1250
0 12 4 2.5764 -0.0598
0 12 5 3.0912 -0.0119
0 12 6 3.0900 0.0063
0 12 7 2.7053 -0.0114
0 12 8 2.2053 -0.0591
0 12 9 1.7978 -0.1166
0 12 10 1.5021 -0.1562
0 12 11 1.1715 -0.1554
0 12 12 0.6376 -0.1100
0 12 13 -0.1316 -0.0380
0 12 14 -0.9733 0.0291
0 12 15 -1.6084 0.0629
0 12 16 -1.7986 0.0541
0 12 17 -1.4794 0.0174
0 13 0 0.5705 -0.2752
0 13 1 -0.1620 -0.2422
0 13 2 -0.8782 -0.1641
0 13 3 -1.1945 -0.0823
0 13 4 -0.8881 -0.0263
0 13 5 -0.0347 -0.0006
0 13 6 1.0211 0.0082
0 13 7 1.8542 0.0143
0 13 8 2.1899 0.0191
0 13 9 2.0347 0.0127
0 13 10 1.6269 -0.0123
0 13 11 1.2468 -0.0473
0 13 12 1.0172 -0.0653
0 13 13 0.8292 -0.0368
0 13 14 0.4400 0.0497
0 13 15 -0.3252 0.1741
0 14 0 1.8201 0.4658
0 14 1 -0.2276 0.4147
0 14 2 -3.1658 0.3019
0 14 3 -5.8796 0.1574
0 14 4 -7.2435 0.0238
0 14 5 -6.6953 -0.0596
0 14 6 -4.5389 -0.0733
0 14 7 -1.7895 -0.0268
0 14 8 0.3607 0.0453
0 14 9 1.1530 0.0991
0 14 10 0.6052 0.1025
0 14 11 -0.5944 0.0514
0 14 12 -1.5479 -0.0277
0 15 0 2.8132 -0.2493
0 15 1 3.4096 -0.2136
0 15 2 3.5039 -0.1414
0 15 3 2.8797 -0.0599
0 15 4 1.5839 -0.0001
0 15 5 -0.0452 0.0202
0 15 6 -1.5327 0.0055
1 -14 0 2.8377 0.1460
1 -14 1 2.0365 0.1697
1 -14 2 1.3892 0.1395
1 -14 3 0.9716 0.0699
1 -14 4 0.6720 -0.0052
1 -14 5 0.3320 -0.0494
1 -13 0 0.3990 -0.5769
1 -13 1 1.0460 -0.5576
1 -13 2 0.6748 -0.4637
1 -13 3 -0.3379 -0.3287
1 -13 4 -1.4426 -0.1902
1 -13 5 -2.2467 -0.0751
1 -13 6 -2.6802 0.0051
1 -13 7 -2.9315 0.0500
1 -13 8 -3.2317 0.0622
1 -13 9 -3.6520 0.0431
1 -12 0 1.5629 0.3306
1 -12 1 1.5724 0.3331
1 -12 2 1.2084 0.2637
1 -12 3 0.6038 0.1439
1 -12 4 -0.0262 0.0220
1 -12 5 -0.5326 -0.0519
1 -12 6 -0.8964 -0.0534
1 -12 7 -1.1734 0.0042
1 -12 8 -1.3771 0.0803
1 -12 9 -1.4083 0.1319
1 -12 10 -1.0984 0.1369
1 -12 11 -0.3453 0.1035
1 -12 12 0.7560 0.0605
1 -11 0 0.1494 0.2655
1 -11 1 0.2913 0.2946
1 -11 2 0.3396 0.2715
1 -11 3 0.1205 0.1996
1 -11 4 -0.3649 0.1015
1 -11 5 -0.9278 0.0108
1 -11 6 -1.3089 -0.0432
1 -11 7 -1.3439 -0.0490
1 -11 8 -1.0543 -0.0168
1 -11 9 -0.5988 0.0292
1 -11 10 -0.1235 0.0653
1 -11 11 0.3719 0.0810
1 -11 12 1.0400 0.0830
1 -11 13 2.0468 0.0875
1 -11 14 3.3822 0.1092
1 -10 0 0.4850 -0.6518
1 -10 1 1.0840 -0.6214
1 -10 2 1.4939 -0.4688
1 -10 3 1.5100 -0.2578
1 -10 4 1.1015 -0.0704
1 -10 5 0.4100 0.0354
1 -10 6 -0.3413 0.0510
1 -10 7 -0.9769 0.0128
1 -10 8 -1.4535 -0.0273
1 -10 9 -1.8421 -0.0342
1 -10 10 -2.2187 -0.0053
1 -10 11 -2.5426 0.0364
1 -10 12 -2.6230 0.0645
1 -10 13 -2.2185 0.0682
1 -10 14 -1.2182 0.0563
1 -10 15 0.2163 0.0460
1 -10 16 1.6587 0.0476
1 -9 0 0.7824 0.3026
1 -9 1 1.7984 0.2496
1 -9 2 2.6473 0.1699
1 -9 3 3.0884 0.0928
1 -9 4 2.9440 0.0404
1 -9 5 2.1690 0.0189
1 -9 6 0.9092 0.0199
1 -9 7 -0.5117 0.0285
1 -9 8 -1.7049 0.0329
1 -9 9 -2.3949 0.0293
1 -9 10 -2.5654 0.0203
1 -9 11 -2.4740 0.0104
1 -9 12 -2.5042 0.0011
1 -9 13 -2.9313 -0.0090
1 -9 14 -3.7389 -0.0227
1 -9 15 -4.6039 -0.0409
1 -9 16 -5.0696 -0.0623
1 -9 17 -4.8064 -0.0836
1 -8 0 1.1724 0.4783
1 -8 1 0.9337 0.4763
1 -8 2 0.7176 0.3841
1 -8 3 0.6118 0.2375
1 -8 4 0.5798 0.0892
1 -8 5 0.4954 -0.0164
1 -8 6 0.2292 -0.0613
1 -8 7 -0.2607 -0.0558
1 -8 8 -0.8855 -0.0275
1 -8 9 -1.4568 -0.0038
1 -8 10 -1.7806 0.0014
1 -8 11 -1.7628 -0.0096
1 -8 12 -1.4677 -0.0243
1 -8 13 -1.0953 -0.0298
1 -8 14 -0.8863 -0.0204
1 -8 15 -1.0050 0.0006
1 -8 16 -1.4589 0.0232
1 -8 17 -2.0973 0.0356
1 -8 18 -2.6829 0.0291
1 -7 0 -0.3261 -0.7420
1 -7 1 -0.6040 -0.7000
1 -7 2 -0.9591 -0.5347
1 -7 3 -1.3493 -0.3125
1 -7 4 -1.6923 -0.1136
1 -7 5 -1.8924 0.0065
1 -7 6 -1.9079 0.0382
1 -7 7 -1.8072 0.0129
1 -7 8 -1.7539 -0.0230
1 -7 9 -1.9096 -0.0362
1 -7 10 -2.3079 -0.0212
1 -7 11 -2.7919 0.0048
1 -7 12 -3.0774 0.0198
1 -7 13 -2.9204 0.0132
1 -7 14 -2.2899 -0.0090
1 -7 15 -1.4274 -0.0315
1 -7 16 -0.7400 -0.0414
1 -7 17 -0.5765 -0.0355
1 -7 18 -1.0225 -0.0191
1 -7 19 -1.8380 0.0002
1 -7 20 -2.5826 0.0187
1 -6 0 2.0559 0.0652
1 -6 1 1.7165 0.0484
1 -6 2 1.0012 0.0359
1 -6 3 -0.0444 0.0362
1 -6 4 -1.3112 0.0485
1 -6 5 -2.6052 0.0632
1 -6 6 -3.6684 0.0691
1 -6 7 -4.2616 0.0610
1 -6 8 -4.2782 0.0428
1 -6 9 -3.8186 0.0230
1 -6 10 -3.1652 0.0086
1 -6 11 -2.6508 0.0006
1 -6 12 -2.4869 -0.0042
1 -6 13 -2.6475 -0.0086
1 -6 14 -2.8800 -0.0109
1 -6 15 -2.8413 -0.0062
1 -6 16 -2.2847 0.0089
1 -6 17 -1.1962 0.0320
1 -6 18 0.1883 0.0544
1 -6 19 1.4863 0.0661
1 -6 20 2.3341 0.0625
1 -6 21 2.5317 0.0472
1 -5 0 5.7488 0.7148
1 -5 1 5.6708 0.7070
1 -5 2 5.2969 0.5690
1 -5 3 4.6779 0.3568
1 -5 4 3.7467 0.1483
1 -5 5 2.4367 0.0060
1 -5 6 0.8360 -0.0481
1 -5 7 -0.7531 -0.0338
1 -5 8 -1.9143 0.0072
1 -5 9 -2.3298 0.0369
1 -5 10 -1.9677 0.0383
1 -5 11 -1.1164 0.0164
1 -5 12 -0.2310 -0.0112
1 -5 13 0.3148 -0.0280
1 -5 14 0.4188 -0.0268
1 -5 15 0.2668 -0.0112
1 -5 16 0.1751 0.0084
1 -5 17 0.3686 0.0200
1 -5 18 0.8388 0.0142
1 -5 19 1.3627 -0.0128
1 -5 20 1.6576 -0.0570
1 -5 21 1.5602 -0.1074
1 -4 0 4.8517 -0.6471
1 -4 1 5.4217 -0.5860
1 -4 2 5.3029 -0.4366
1 -4 3 4.5870 -0.2617
1 -4 4 3.4181 -0.1222
1 -4 5 1.9717 -0.0487
1 -4 6 0.4494 -0.0339
1 -4 7 -0.9359 -0.0459
1 -4 8 -1.9996 -0.0518
1 -4 9 -2.6417 -0.0360
1 -4 10 -2.8847 -0.0048
1 -4 11 -2.8585 0.0240
1 -4 12 -2.7267 0.0355
1 -4 13 -2.5902 0.0271
1 -4 14 -2.4254 0.0080
1 -4 15 -2.1021 -0.0092
1 -4 16 -1.4741 -0.0171
1 -4 17 -0.4925 -0.0164
1 -4 18 0.7306 -0.0129
1 -4 19 1.9490 -0.0116
1 -4 20 2.8870 -0.0122
1 -4 21 3.3605 -0.0101
1 -4 22 3.3482 -0.0008
1 -3 0 8.3402 -0.1655
1 -3 1 9.0137 -0.1910
1 -3 2 8.8613 -0.1630
1 -3 3 8.0756 -0.0941
1 -3 4 6.8217 -0.0149
1 -3 5 5.1936 0.0430
1 -3 6 3.2649 0.0637
1 -3 7 1.1819 0.0530
1 -3 8 -0.7868 0.0302
1 -3 9 -2.3011 0.0142
1 -3 10 -3.0858 0.0118
1 -3 11 -3.0727 0.0167
1 -3 12 -2.4536 0.0185
1 -3 13 -1.5970 0.0125
1 -3 14 -0.8651 0.0045
1 -3 15 -0.4350 0.0049
1 -3 16 -0.2270 0.0195
1 -3 17 0.0141 0.0424
1 -3 18 0.5319 0.0589
1 -3 19 1.3784 0.0550
1 -3 20 2.3499 0.0288
1 -3 21 3.0808 -0.0064
1 -3 22 3.2427 -0.0290
1 -3 23 2.7326 -0.0220
1 -2 0 7.8714 0.6846
1 -2 1 9.9120 0.6060
1 -2 2 10.9266 0.4326
1 -2 3 10.9234 0.2376
1 -2 4 10.0301 0.0869
1 -2 5 8.4223 0.0093
1 -2 6 6.3129 -0.0077
1 -2 7 3.9785 0.0009
1 -2 8 1.7590 0.0045
1 -2 9 -0.0073 -0.0069
1 -2 10 -1.0940 -0.0246
1 -2 11 -1.4759 -0.0349
1 -2 12 -1.3304 -0.0320
1 -2 13 -0.9422 -0.0214
1 -2 14 -0.5633 -0.0126
1 -2 15 -0.3114 -0.0101
1 -2 16 -0.1641 -0.0103
1 -2 17 -0.0386 -0.0067
1 -2 18 0.1054 0.0026
1 -2 19 0.2149 0.0116
1 -2 20 0.1768 0.0110
1 -2 21 -0.0902 -0.0039
1 -2 22 -0.5528 -0.0273
1 -2 23 -1.0504 -0.0465
1 -1 2 10.1939 -0.2030
1 -1 3 9.2316 -0.1336
1 -1 4 7.5430 -0.0955
1 -1 5 5.4926 -0.0798
1 -1 6 3.4039 -0.0694
1 -1 7 1.5031 -0.0521
1 -1 8 -0.0689 -0.0263
1 -1 9 -1.2252 0.0009
1 -1 10 -1.9228 0.0211
1 -1 11 -2.1779 0.0302
1 -1 12 -2.0756 0.0290
1 -1 13 -1.7443 0.0207
1 -1 14 -1.3017 0.0085
1 -1 15 -0.8089 -0.0045
1 -1 16 -0.2733 -0.0142
1 -1 17 0.2988 -0.0157
1 -1 18 0.8399 -0.0064
1 -1 19 1.2058 0.0105
1 -1 20 1.2338 0.0250
1 -1 21 0.8452 0.0248
1 -1 22 0.1257 0.0027
1 -1 23 -0.6798 -0.0379
1 -1 24 -1.2672 -0.0837
1 0 3 14.3745 -0.1461
1 0 4 11.1455 -0.0610
1 0 5 8.0278 -0.0073
1 0 6 5.1133 0.0163
1 0 7 2.3421 0.0232
1 0 8 -0.3221 0.0266
1 0 9 -2.7525 0.0311
1 0 10 -4.6571 0.0332
1 0 11 -5.7237 0.0280
1 0 12 -5.8164 0.0149
1 0 13 -5.0888 -0.0006
1 0 14 -3.9310 -0.0118
1 0 15 -2.7777 -0.0160
1 0 16 -1.8953 -0.0158
1 0 17 -1.2818 -0.0165
1 0 18 -0.7359 -0.0212
1 0 19 -0.0434 -0.0280
1 0 20 0.8466 -0.0314
1 0 21 1.7677 -0.0262
1 0 22 2.4326 -0.0114
1 0 23 2.6103 0.0092
1 0 24 2.2661 0.0292
1 1 3 26.0614 -0.0221
1 1 4 21.8024 0.0411
1 1 5 17.3880 0.1103
1 1 6 13.3662 0.1387
1 1 7 9.9295 0.1078
1 1 8 6.9791 0.0362
1 1 9 4.3094 -0.0363
1 1 10 1.7969 -0.0747
1 1 11 -0.5040 -0.0694
1 1 12 -2.3943 -0.0374
1 1 13 -3.6507 -0.0066
1 1 14 -4.1507 0.0034
1 1 15 -3.9336 -0.0075
1 1 16 -3.1767 -0.0243
1 1 17 -2.1199 -0.0302
1 1 18 -0.9876 -0.0183
1 1 19 0.0538 0.0052
1 1 20 0.9000 0.0276
1 1 21 1.4963 0.0395
1 1 22 1.8275 0.0400
1 1 23 1.9166 0.0349
1 1 24 1.8210 0.0310
1 2 0 18.0614 0.3364
1 2 1 21.0179 0.3355
1 2 2 22.1017 0.2748
1 2 3 21.2707 0.1783
1 2 4 18.8980 0.0806
1 2 5 15.5893 0.0088
1 2 6 11.9660 -0.0285
1 2 7 8.5143 -0.0393
1 2 8 5.5381 -0.0373
1 2 9 3.1863 -0.0311
1 2 10 1.4976 -0.0212
1 2 11 0.4279 -0.0049
1 2 12 -0.1349 0.0161
1 2 13 -0.3437 0.0331
1 2 14 -0.3422 0.0359
1 2 15 -0.2150 0.0208
1 2 16 0.0255 -0.0045
1 2 17 0.3947 -0.0247
1 2 18 0.8609 -0.0273
1 2 19 1.2951 -0.0120
1 2 20 1.4964 0.0084
1 2 21 1.2921 0.0160
1 2 22 0.6542 0.0004
1 2 23 -0.2476 -0.0338
1 2 24 -1.1043 -0.0693
1 3 0 6.4089 0.1467
1 3 1 8.1245 0.2146
1 3 2 8.6761 0.2069
1 3 3 8.1396 0.1255
1 3 4 6.8432 0.0086
1 3 5 5.1866 -0.0902
1 3 6 3.4685 -0.1317
1 3 7 1.8228 -0.1106
1 3 8 0.2815 -0.0537
1 3 9 -1.1065 0.0001
1 3 10 -2.2062 0.0249
1 3 11 -2.8390 0.0198
1 3 12 -2.9033 0.0037
1 3 13 -2.4779 -0.0036
1 3 14 -1.8153 0.0041
1 3 15 -1.2163 0.0163
1 3 16 -0.8624 0.0172
1 3 17 -0.7251 -0.0000
1 3 18 -0.6155 -0.0275
1 3 19 -0.3441 -0.0490
1 3 20 0.1204 -0.0533
1 3 21 0.6048 -0.0431
1 3 22 0.8325 -0.0326
1 3 23 0.6071 -0.0353
1 3 24 -0.0460 -0.0529
1 4 0 4.9084 -0.4814
1 4 1 6.1168 -0.4919
1 4 2 6.3729 -0.3945
1 4 3 5.5183 -0.2332
1 4 4 3.7801 -0.0761
1 4 5 1.6946 0.0213
1 4 6 -0.1452 0.0425
1 4 7 -1.3664 0.0122
1 4 8 -1.9501 -0.0256
1 4 9 -2.1507 -0.0372
1 4 10 -2.2748 -0.0168
1 4 11 -2.4719 0.0163
1 4 12 -2.6734 0.0370
1 4 13 -2.6948 0.0333
1 4 14 -2.4067 0.0125
1 4 15 -1.8403 -0.0067
1 4 16 -1.1554 -0.0098
1 4 17 -0.5114 0.0039
1 4 18 0.0508 0.0232
1 4 19 0.6188 0.0346
1 4 20 1.3047 0.0315
1 4 21 2.1109 0.0164
1 4 22 2.8735 -0.0046
1 4 23 3.3350 -0.0272
1 4 24 3.3004 -0.0515
1 5 0 0.7038 0.1904
1 5 1 1.7199 0.1723
1 5 2 2.3131 0.1426
1 5 3 2.2352 0.1133
1 5 4 1.3871 0.0891
1 5 5 -0.1226 0.0670
1 5 6 -2.0072 0.0430
1 5 7 -3.9023 0.0181
1 5 8 -5.4861 -0.0009
1 5 9 -6.5593 -0.0065
1 5 10 -7.0583 0.0021
1 5 11 -7.0173 0.0168
1 5 12 -6.5174 0.0256
1 5 13 -5.6548 0.0208
1 5 14 -4.5353 0.0047
1 5 15 -3.2756 -0.0124
1 5 16 -1.9958 -0.0197
1 5 17 -0.8007 -0.0138
1 5 18 0.2359 -0.0005
1 5 19 1.0677 0.0106
1 5 20 1.6584 0.0135
1 5 21 1.9689 0.0108
1 5 22 1.9699 0.0107
1 5 23 1.6765 0.0197
1 5 24 1.1785 0.0373
1 6 0 2.0219 0.2882
1 6 1 2.3667 0.3172
1 6 2 2.4838 0.2384
1 6 3 2.3204 0.0910
1 6 4 1.8054 -0.0563
1 6 5 0.8881 -0.1430
1 6 6 -0.4103 -0.1465
1 6 7 -1.9629 -0.0894
1 6 8 -3.5481 -0.0196
1 6 9 -4.9046 0.0198
1 6 10 -5.8097 0.0138
1 6 11 -6.1456 -0.0222
1 6 12 -5.9266 -0.0578
1 6 13 -5.2760 -0.0692
1 6 14 -4.3698 -0.0523
1 6 15 -3.3719 -0.0211
1 6 16 -2.3896 0.0051
1 6 17 -1.4644 0.0146
1 6 18 -0.5950 0.0081
1 6 19 0.2229 -0.0052
1 6 20 0.9638 -0.0161
1 6 21 1.5638 -0.0211
1 6 22 1.9418 -0.0222
1 6 23 2.0392 -0.0226
1 7 0 4.1681 -0.4013
1 7 1 5.0875 -0.4020
1 7 2 5.3947 -0.3111
1 7 3 4.8657 -0.1706
1 7 4 3.5874 -0.0357
1 7 5 1.9494 0.0531
1 7 6 0.4574 0.0855
1 7 7 -0.5210 0.0778
1 7 8 -0.9237 0.0555
1 7 9 -0.9771 0.0355
1 7 10 -1.0151 0.0188
1 7 11 -1.2555 -0.0023
1 7 12 -1.6705 -0.0317
1 7 13 -2.0238 -0.0618
1 7 14 -2.0358 -0.0770
1 7 15 -1.5662 -0.0661
1 7 16 -0.7049 -0.0320
1 7 17 0.2724 0.0077
1 7 18 1.0440 0.0326
1 7 19 1.3880 0.0331
1 7 20 1.2604 0.0176
1 7 21 0.7806 0.0066
1 7 22 0.1545 0.0187
1 7 23 -0.4135 0.0566
1 8 0 1.3573 0.0543
1 8 1 1.5124 0.0180
1 8 2 1.4746 0.0037
1 8 3 1.2554 0.0159
1 8 4 0.9043 0.0415
1 8 5 0.5395 0.0602
1 8 6 0.3022 0.0585
1 8 7 0.2572 0.0377
1 8 8 0.3178 0.0093
1 8 9 0.2669 -0.0152
1 8 10 -0.1183 -0.0322
1 8 11 -0.9089 -0.0458
1 8 12 -1.9355 -0.0587
1 8 13 -2.8316 -0.0655
1 8 14 -3.1933 -0.0539
1 8 15 -2.7679 -0.0153
1 8 16 -1.5734 0.0437
1 8 17 0.1036 0.0996
1 8 18 1.8183 0.1243
1 8 19 3.1238 0.1033
1 8 20 3.7070 0.0487
1 8 21 3.4674 -0.0047
1 8 22 2.5292 -0.0194
1 9 0 0.2535 0.3696
1 9 1 0.4933 0.3837
1 9 2 0.7341 0.2907
1 9 3 0.9408 0.1409
1 9 4 0.9590 0.0035
1 9 5 0.6501 -0.0712
1 9 6 0.0398 -0.0735
1 9 7 -0.6413 -0.0318
1 9 8 -1.0696 0.0115
1 9 9 -1.0266 0.0263
1 9 10 -0.5525 0.0084
1 9 11 0.0548 -0.0243
1 9 12 0.4040 -0.0474
1 9 13 0.2416 -0.0452
1 9 14 -0.3889 -0.0172
1 9 15 -1.1552 0.0240
1 9 16 -1.6042 0.0607
1 9 17 -1.3932 0.0768
1 9 18 -0.4612 0.0627
1 9 19 0.9427 0.0187
1 9 20 2.3732 -0.0439
1 9 21 3.3791 -0.1040
1 10 0 1.2093 -0.3034
1 10 1 1.2724 -0.3182
1 10 2 1.1389 -0.2732
1 10 3 0.8676 -0.1867
1 10 4 0.4976 -0.0900
1 10 5 0.0543 -0.0132
1 10 6 -0.4067 0.0263
1 10 7 -0.7655 0.0294
1 10 8 -0.8660 0.0109
1 10 9 -0.6060 -0.0102
1 10 10 -0.0366 -0.0207
1 10 11 0.6099 -0.0182
1 10 12 1.0064 -0.0093
1 10 13 0.8988 -0.0031
1 10 14 0.2615 -0.0047
1 10 15 -0.6590 -0.0142
1 10 16 -1.4495 -0.0288
1 10 17 -1.7345 -0.0478
1 10 18 -1.3662 -0.0731
1 10 19 -0.4968 -0.1069
1 10 20 0.5035 -0.1458
1 11 0 1.4020 -0.0202
1 11 1 0.7245 -0.0592
1 11 2 -0.3390 -0.0543
1 11 3 -1.5120 -0.0090
1 11 4 -2.4137 0.0505
1 11 5 -2.7504 0.0917
1 11 6 -2.4772 0.0960
1 11 7 -1.8164 0.0676
1 11 8 -1.1096 0.0279
1 11 9 -0.6036 -0.0000
1 11 10 -0.3163 -0.0065
1 11 11 -0.0783 0.0014
1 11 12 0.2867 0.0068
1 11 13 0.7768 -0.0037
1 11 14 1.1662 -0.0321
1 11 15 1.1428 -0.0698
1 11 16 0.5372 -0.1062
1 11 17 -0.5163 -0.1369
1 11 18 -1.6093 -0.1655
1 11 19 -2.2691 -0.1986
1 12 0 0.7277 0.3516
1 12 1 0.4738 0.3462
1 12 2 -0.2506 0.2488
1 12 3 -1.2815 0.1129
1 12 4 -2.2709 0.0007
1 12 5 -2.8350 -0.0526
1 12 6 -2.7551 -0.0522
1 12 7 -2.1093 -0.0314
1 12 8 -1.2439 -0.0236
1 12 9 -0.5883 -0.0390
1 12 10 -0.4198 -0.0614
1 12 11 -0.7230 -0.0640
1 12 12 -1.2281 -0.0323
1 12 13 -1.5991 0.0242
1 12 14 -1.6422 0.0771
1 12 15 -1.3992 0.0973
1 12 16 -1.0747 0.0724
1 12 17 -0.8620 0.0126
1 13 0 -1.1266 -0.1418
1 13 1 -0.8746 -0.1449
1 13 2 -0.0417 -0.1293
1 13 3 1.1781 -0.0923
1 13 4 2.3430 -0.0366
1 13 5 3.0191 0.0232
1 13 6 3.0227 0.0625
1 13 7 2.4955 0.0590
1 13 8 1.7780 0.0079
1 13 9 1.1794 -0.0689
1 13 10 0.8030 -0.1305
1 13 11 0.5340 -0.1380
1 13 12 0.1773 -0.0777
1 13 13 -0.3662 0.0281
1 13 14 -1.0114 0.1303
1 13 15 -1.5400 0.1788
1 14 0 -0.6164 -0.2595
1 14 1 -1.5155 -0.2590
1 14 2 -2.3830 -0.1918
1 14 3 -2.9119 -0.0960
1 14 4 -2.9262 -0.0115
1 14 5 -2.4821 0.0392
1 14 6 -1.8443 0.0556
1 14 7 -1.3411 0.0485
1 14 8 -1.1822 0.0278
1 14 9 -1.3498 -0.0018
1 14 10 -1.6301 -0.0356
1 14 11 -1.7640 -0.0595
1 14 12 -1.6205 -0.0504
1 15 0 1.7595 0.2164
1 15 1 0.0229 0.1795
1 15 2 -2.9941 0.1107
1 15 3 -6.2296 0.0268
1 15 4 -8.3899 -0.0498
1 15 5 -8.5829 -0.0973
1 15 6 -6.7749 -0.1035
1 15 7 -3.8065 -0.0733
1 15 8 -0.9519 -0.0285
2 -14 0 3.1199 0.1948
2 -14 2 1.4966 0.3164
2 -14 3 1.2573 0.2315
2 -14 4 1.4769 0.0896
2 -13 0 1.3261 -0.0001
2 -13 1 0.6594 0.0447
2 -13 2 0.1289 0.0451
2 -13 3 -0.0924 -0.0015
2 -13 4 -0.0388 -0.0724
2 -13 5 0.1128 -0.1303
2 -13 6 0.1762 -0.1429
2 -13 7 0.0627 -0.0989
2 -13 8 -0.1963 -0.0131
2 -12 0 -1.0446 -0.3111
2 -12 1 -0.4234 -0.3134
2 -12 2 -0.3738 -0.2454
2 -12 3 -0.7731 -0.1384
2 -12 4 -1.2669 -0.0320
2 -12 5 -1.5211 0.0453
2 -12 6 -1.4226 0.0866
2 -12 7 -1.1184 0.1026
2 -12 8 -0.8925 0.1087
2 -12 9 -0.9723 0.1128
2 -12 10 -1.3864 0.1119
2 -12 11 -1.9495 0.0995
2 -11 0 2.2348 0.2543
2 -11 1 2.1732 0.2953
2 -11 2 1.7996 0.2781
2 -11 3 1.2203 0.2019
2 -11 4 0.6138 0.0937
2 -11 5 0.1117 -0.0053
2 -11 6 -0.2550 -0.0620
2 -11 7 -0.5114 -0.0662
2 -11 8 -0.6427 -0.0329
2 -11 9 -0.5372 0.0107
2 -11 10 -0.0306 0.0426
2 -11 11 0.9671 0.0570
2 -11 12 2.3480 0.0638
2 -11 13 3.7835 0.0769
2 -10 0 -0.1192 0.1037
2 -10 1 0.0080 0.1437
2 -10 2 -0.0073 0.1447
2 -10 3 -0.2057 0.1055
2 -10 4 -0.5252 0.0416
2 -10 5 -0.8160 -0.0220
2 -10 6 -0.9251 -0.0640
2 -10 7 -0.7967 -0.0768
2 -10 8 -0.5102 -0.0679
2 -10 9 -0.2186 -0.0526
2 -10 10 -0.0208 -0.0426
2 -10 11 0.1407 -0.0382
2 -10 12 0.4728 -0.0294
2 -10 13 1.1989 -0.0036
2 -10 14 2.3757 0.0446
2 -10 15 3.7820 0.1087
2 -9 0 1.5363 -0.3495
2 -9 1 2.1749 -0.3768
2 -9 2 2.5995 -0.2997
2 -9 3 2.5614 -0.1575
2 -9 4 2.0452 -0.0146
2 -9 5 1.2699 0.0745
2 -9 6 0.5527 0.0921
2 -9 7 0.1109 0.0594
2 -9 8 -0.0705 0.0161
2 -9 9 -0.2154 -0.0061
2 -9 10 -0.5814 -0.0008
2 -9 11 -1.2444 0.0165
2 -9 12 -1.9928 0.0246
2 -9 13 -2.4174 0.0135
2 -9 14 -2.1570 -0.0105
2 -9 15 -1.1502 -0.0322
2 -9 16 0.2750 -0.0405
2 -9 17 1.5416 -0.0365
2 -8 0 1.5859 0.2081
2 -8 1 2.7041 0.1822
2 -8 2 3.7583 0.1308
2 -8 3 4.3631 0.0722
2 -8 4 4.2062 0.0228
2 -8 5 3.1806 -0.0084
2 -8 6 1.4615 -0.0210
2 -8 7 -0.5312 -0.0197
2 -8 8 -2.2925 -0.0102
2 -8 9 -3.4512 0.0024
2 -8 10 -3.9344 0.0140
2 -8 11 -3.9807 0.0205
2 -8 12 -3.9861 0.0187
2 -8 13 -4.2634 0.0078
2 -8 14 -4.8536 -0.0090
2 -8 15 -5.5003 -0.0257
2 -8 16 -5.8004 -0.0356
2 -8 17 -5.4426 -0.0347
2 -8 18 -4.3920 -0.0230
2 -7 0 0.8724 0.2060
2 -7 1 0.7475 0.2309
2 -7 2 0.8463 0.1803
2 -7 3 1.2438 0.0795
2 -7 4 1.7926 -0.0252
2 -7 5 2.2098 -0.0920
2 -7 6 2.2464 -0.1031
2 -7 7 1.8356 -0.0691
2 -7 8 1.1324 -0.0184
2 -7 9 0.4230 0.0209
2 -7 10 -0.0383 0.0345
2 -7 11 -0.1654 0.0247
2 -7 12 -0.0714 0.0047
2 -7 13 0.0168 -0.0122
2 -7 14 -0.0996 -0.0189
2 -7 15 -0.4804 -0.0160
2 -7 16 -1.0260 -0.0081
2 -7 17 -1.5484 -0.0005
2 -7 18 -1.8785 0.0032
2 -7 19 -1.9443 0.0013
2 -6 0 -0.3578 -0.3888
2 -6 1 -0.3404 -0.4033
2 -6 2 -0.4396 -0.3263
2 -6 3 -0.5422 -0.1942
2 -6 4 -0.5427 -0.0611
2 -6 5 -0.3868 0.0287
2 -6 6 -0.1056 0.0608
2 -6 7 0.1783 0.0508
2 -6 8 0.2897 0.0296
2 -6 9 0.0818 0.0224
2 -6 10 -0.4767 0.0358
2 -6 11 -1.2590 0.0589
2 -6 12 -2.0194 0.0745
2 -6 13 -2.5074 0.0721
2 -6 14 -2.5982 0.0527
2 -6 15 -2.3634 0.0262
2 -6 16 -2.0327 0.0028
2 -6 17 -1.8614 -0.0118
2 -6 18 -1.9782 -0.0176
2 -6 19 -2.3044 -0.0163
2 -6 20 -2.5948 -0.0079
2 -5 0 1.4734 0.0821
2 -5 1 1.8777 0.0867
2 -5 2 1.9828 0.0925
2 -5 3 1.7639 0.0997
2 -5 4 1.2501 0.1029
2 -5 5 0.5304 0.0944
2 -5 6 -0.2493 0.0703
2 -5 7 -0.9167 0.0343
2 -5 8 -1.3319 -0.0032
2 -5 9 -1.4501 -0.0306
2 -5 10 -1.3501 -0.0424
2 -5 11 -1.2036 -0.0414
2 -5 12 -1.1933 -0.0353
2 -5 13 -1.4182 -0.0306
2 -5 14 -1.8377 -0.0275
2 -5 15 -2.2829 -0.0207
2 -5 16 -2.5312 -0.0055
2 -5 17 -2.4065 0.0171
2 -5 18 -1.8589 0.0387
2 -5 19 -0.9920 0.0484
2 -5 20 -0.0266 0.0400
2 -5 21 0.7799 0.0164
2 -4 0 3.6870 0.3795
2 -4 1 4.4609 0.4144
2 -4 2 5.0850 0.3397
2 -4 3 5.4559 0.1918
2 -4 4 5.3833 0.0339
2 -4 5 4.7103 -0.0773
2 -4 6 3.4601 -0.1177
2 -4 7 1.9029 -0.0990
2 -4 8 0.4763 -0.0547
2 -4 9 -0.4139 -0.0169
2 -4 10 -0.5957 -0.0016
2 -4 11 -0.2130 -0.0062
2 -4 12 0.3677 -0.0187
2 -4 13 0.7693 -0.0278
2 -4 14 0.8035 -0.0292
2 -4 15 0.5412 -0.0244
2 -4 16 0.2203 -0.0175
2 -4 17 0.0651 -0.0123
2 -4 18 0.1378 -0.0118
2 -4 19 0.3130 -0.0190
2 -4 20 0.3775 -0.0359
2 -4 21 0.1799 -0.0614
2 -4 22 -0.2707 -0.0901
2 -3 0 3.8310 -0.3760
2 -3 1 5.3492 -0.3652
2 -3 2 6.2485 -0.2860
2 -3 3 6.4662 -0.1749
2 -3 4 6.0097 -0.0734
2 -3 5 4.9595 -0.0083
2 -3 6 3.4804 0.0170
2 -3 7 1.8172 0.0167
2 -3 8 0.2490 0.0100
2 -3 9 -0.9930 0.0092
2 -3 10 -1.8032 0.0152
2 -3 11 -2.2263 0.0216
2 -3 12 -2.4058 0.0218
2 -3 13 -2.4820 0.0139
2 -3 14 -2.5018 0.0015
2 -3 15 -2.3997 -0.0095
2 -3 16 -2.0607 -0.0147
2 -3 17 -1.4243 -0.0129
2 -3 18 -0.5575 -0.0052
2 -3 19 0.3543 0.0061
2 -3 20 1.0925 0.0191
2 -3 21 1.5122 0.0317
2 -3 22 1.6040 0.0418
2 -2 0 6.6750 -0.0763
2 -2 1 8.6833 -0.1193
2 -2 2 9.9245 -0.1119
2 -2 3 10.4539 -0.0596
2 -2 4 10.3315 0.0117
2 -2 5 9.5587 0.0714
2 -2 6 8.1163 0.0995
2 -2 7 6.0723 0.0948
2 -2 8 3.6724 0.0704
2 -2 9 1.3279 0.0426
2 -2 10 -0.5168 0.0210
2 -2 11 -1.5709 0.0055
2 -2 12 -1.8268 -0.0089
2 -2 13 -1.5485 -0.0244
2 -2 14 -1.1194 -0.0371
2 -2 15 -0.8361 -0.0401
2 -2 16 -0.7682 -0.0294
2 -2 17 -0.7632 -0.0091
2 -2 18 -0.5849 0.0094
2 -2 19 -0.0956 0.0142
2 -2 20 0.6340 0.0007
2 -2 21 1.3503 -0.0258
2 -2 22 1.7586 -0.0519
2 -2 23 1.6897 -0.0651
2 -1 0 4.6019 0.4097
2 -1 1 7.7677 0.3729
2 -1 2 9.9310 0.2623
2 -1 3 10.9698 0.1314
2 -1 4 10.9828 0.0311
2 -1 5 10.1720 -0.0154
2 -1 6 8.7532 -0.0176
2 -1 7 6.9320 -0.0026
2 -1 8 4.9247 0.0062
2 -1 9 2.9678 0.0031
2 -1 10 1.2850 -0.0028
2 -1 11 0.0224 0.0005
2 -1 12 -0.7966 0.0154
2 -1 13 -1.2588 0.0329
2 -1 14 -1.4915 0.0409
2 -1 15 -1.5835 0.0341
2 -1 16 -1.5521 0.0185
2 -1 17 -1.3796 0.0061
2 -1 18 -1.0879 0.0058
2 -1 19 -0.7888 0.0161
2 -1 20 -0.6626 0.0275
2 -1 21 -0.8647 0.0296
2 -1 22 -1.4168 0.0185
2 -1 23 -2.1575 -0.0011
2 0 0 4.6859 -0.2391
2 0 1 7.2571 -0.1915
2 0 2 8.9132 -0.1351
2 0 3 9.3829 -0.0886
2 0 4 8.7485 -0.0593
2 0 5 7.3417 -0.0433
2 0 6 5.5682 -0.0334
2 0 7 3.7669 -0.0249
2 0 8 2.1563 -0.0174
2 0 9 0.8517 -0.0119
2 0 10 -0.0981 -0.0077
2 0 11 -0.6953 -0.0028
2 0 12 -0.9937 0.0031
2 0 13 -1.0885 0.0060
2 0 14 -1.0747 -0.0008
2 0 15 -0.9944 -0.0208
2 0 16 -0.8119 -0.0496
2 0 17 -0.4498 -0.0745
2 0 18 0.1279 -0.0819
2 0 19 0.8399 -0.0664
2 0 20 1.4795 -0.0366
2 0 21 1.7958 -0.0113
2 0 22 1.6257 -0.0092
2 0 23 0.9973 -0.0378
2 0 24 0.1379 -0.0889
2 1 0 15.0513 -0.1299
2 1 1 15.8475 -0.1299
2 1 2 15.5834 -0.0985
2 1 3 14.3963 -0.0525
2 1 4 12.5732 -0.0100
2 1 5 10.4182 0.0196
2 1 6 8.1321 0.0365
2 1 7 5.7792 0.0453
2 1 8 3.3592 0.0490
2 1 9 0.9276 0.0461
2 1 10 -1.3326 0.0352
2 1 11 -3.1471 0.0186
2 1 12 -4.2801 0.0036
2 1 13 -4.6693 -0.0022
2 1 14 -4.4686 0.0036
2 1 15 -3.9618 0.0153
2 1 16 -3.3984 0.0232
2 1 17 -2.8575 0.0209
2 1 18 -2.2312 0.0102
2 1 19 -1.3385 0.0006
2 1 20 -0.0955 0.0017
2 1 21 1.3708 0.0170
2 1 22 2.7408 0.0406
2 1 23 3.6447 0.0620
2 1 24 3.8440 0.0730
2 2 0 22.9896 0.1399
2 2 1 25.2867 0.0806
2 2 2 25.7151 0.0453
2 2 3 24.3891 0.0508
2 2 4 21.7622 0.0855
2 2 5 18.4615 0.1177
2 2 6 15.0653 0.1179
2 2 7 11.9269 0.0778
2 2 8 9.1268 0.0153
2 2 9 6.5632 -0.0381
2 2 10 4.1155 -0.0573
2 2 11 1.7799 -0.0382
2 2 12 -0.2974 0.0023
2 2 13 -1.8958 0.0398
2 2 14 -2.8453 0.0575
2 2 15 -3.1178 0.0544
2 2 16 -2.8336 0.0419
2 2 17 -2.1889 0.0327
2 2 18 -1.3615 0.0325
2 2 19 -0.4544 0.0371
2 2 20 0.4944 0.0377
2 2 21 1.4565 0.0279
2 2 22 2.3587 0.0078
2 2 23 3.0743 -0.0173
2 2 24 3.4640 -0.0400
2 3 0 10.4723 0.0626
2 3 1 14.2772 0.0889
2 3 2 16.7663 0.0839
2 3 3 17.6559 0.0548
2 3 4 17.0253 0.0170
2 3 5 15.2189 -0.0156
2 3 6 12.6870 -0.0371
2 3 7 9.8523 -0.0482
2 3 8 7.0469 -0.0510
2 3 9 4.5100 -0.0440
2 3 10 2.4033 -0.0243
2 3 11 0.8115 0.0076
2 3 12 -0.2691 0.0432
2 3 13 -0.9286 0.0679
2 3 14 -1.3031 0.0688
2 3 15 -1.5098 0.0436
2 3 16 -1.5941 0.0041
2 3 17 -1.5294 -0.0297
2 3 18 -1.2745 -0.0411
2 3 19 -0.8486 -0.0269
2 3 20 -0.3664 0.0008
2 3 21 -0.0017 0.0213
2 3 22 0.1050 0.0177
2 3 23 -0.0671 -0.0137
2 3 24 -0.3989 -0.0621
2 4 0 3.2771 -0.0057
2 4 1 6.1983 0.0472
2 4 2 8.1762 0.0456
2 4 3 9.0116 -0.0095
2 4 4 8.8113 -0.0865
2 4 5 7.8799 -0.1411
2 4 6 6.5467 -0.1432
2 4 7 5.0333 -0.0938
2 4 8 3.4331 -0.0229
2 4 9 1.7919 0.0317
2 4 10 0.2085 0.0474
2 4 11 -1.1301 0.0284
2 4 12 -2.0133 -0.0015
2 4 13 -2.3218 -0.0182
2 4 14 -2.1072 -0.0140
2 4 15 -1.5717 -0.0001
2 4 16 -0.9595 0.0051
2 4 17 -0.4325 -0.0077
2 4 18 -0.0154 -0.0315
2 4 19 0.3586 -0.0488
2 4 20 0.7427 -0.0462
2 4 21 1.0962 -0.0257
2 4 22 1.2906 -0.0038
2 4 23 1.2000 0.0004
2 4 24 0.8081 -0.0202
2 5 0 0.0299 -0.0858
2 5 1 2.4054 -0.1124
2 5 2 4.3039 -0.0758
2 5 3 5.1782 -0.0005
2 5 4 4.8273 0.0713
2 5 5 3.5173 0.1054
2 5 6 1.8454 0.0944
2 5 7 0.4287 0.0583
2 5 8 -0.3940 0.0272
2 5 9 -0.6731 0.0201
2 5 10 -0.7254 0.0333
2 5 11 -0.8808 0.0466
2 5 12 -1.2701 0.0407
2 5 13 -1.7783 0.0125
2 5 14 -2.1631 -0.0231
2 5 15 -2.2304 -0.0449
2 5 16 -1.9395 -0.0407
2 5 17 -1.3829 -0.0159
2 5 18 -0.6838 0.0117
2 5 19 0.0893 0.0251
2 5 20 0.9238 0.0189
2 5 21 1.7896 0.0011
2 5 22 2.5691 -0.0154
2 5 23 3.0642 -0.0231
2 5 24 3.0938 -0.0244
2 6 0 -2.4662 0.0086
2 6 1 -1.7668 0.0048
2 6 2 -0.9022 0.0040
2 6 3 -0.1261 0.0102
2 6 4 0.2580 0.0193
2 6 5 0.0457 0.0223
2 6 6 -0.7556 0.0133
2 6 7 -1.9205 -0.0043
2 6 8 -3.1087 -0.0195
2 6 9 -4.0187 -0.0224
2 6 10 -4.5030 -0.0126
2 6 11 -4.5912 -0.0004
2 6 12 -4.4239 0.0009
2 6 13 -4.1486 -0.0145
2 6 14 -3.8415 -0.0387
2 6 15 -3.4880 -0.0558
2 6 16 -3.0185 -0.0534
2 6 17 -2.3685 -0.0330
2 6 18 -1.5293 -0.0094
2 6 19 -0.5718 -0.0003
2 6 20 0.3632 -0.0122
2 6 21 1.1018 -0.0345
2 6 22 1.4933 -0.0456
2 6 23 1.4684 -0.0278
2 7 0 0.5405 0.0683
2 7 1 1.0925 0.1021
2 7 2 1.7471 0.0658
2 7 3 2.4155 -0.0180
2 7 4 2.8726 -0.1013
2 7 5 2.8287 -0.1397
2 7 6 2.0744 -0.1172
2 7 7 0.6189 -0.0535
2 7 8 -1.2644 0.0113
2 7 9 -3.1227 0.0417
2 7 10 -4.5008 0.0266
2 7 11 -5.1208 -0.0184
2 7 12 -4.9751 -0.0632
2 7 13 -4.2897 -0.0825
2 7 14 -3.3907 -0.0682
2 7 15 -2.5472 -0.0300
2 7 16 -1.8721 0.0132
2 7 17 -1.3177 0.0438
2 7 18 -0.7539 0.0521
2 7 19 -0.0752 0.0369
2 7 20 0.7207 0.0033
2 7 21 1.5198 -0.0404
2 7 22 2.1428 -0.0832
2 7 23 2.4302 -0.1139
2 8 0 1.6381 -0.0301
2 8 1 2.7619 -0.0616
2 8 2 3.6685 -0.0435
2 8 3 4.0529 0.0100
2 8 4 3.7962 0.0694
2 8 5 3.0349 0.1074
2 8 6 2.0789 0.1124
2 8 7 1.2314 0.0910
2 8 8 0.6255 0.0591
2 8 9 0.1784 0.0296
2 8 10 -0.3122 0.0055
2 8 11 -0.9965 -0.0177
2 8 12 -1.8395 -0.0428
2 8 13 -2.6085 -0.0646
2 8 14 -2.9898 -0.0704
2 8 15 -2.7603 -0.0502
2 8 16 -1.9147 -0.0063
2 8 17 -0.6791 0.0436
2 8 18 0.5890 0.0740
2 8 19 1.5507 0.0669
2 8 20 2.0088 0.0233
2 8 21 1.9517 -0.0351
2 8 22 1.5160 -0.0776
2 9 0 1.8202 -0.0210
2 9 1 1.8511 -0.0586
2 9 2 1.7188 -0.0780
2 9 3 1.4854 -0.0682
2 9 4 1.1877 -0.0384
2 9 5 0.8929 -0.0106
2 9 6 0.7005 -0.0033
2 9 7 0.6754 -0.0195
2 9 8 0.7680 -0.0462
2 9 9 0.7970 -0.0657
2 9 10 0.5347 -0.0687
2 9 11 -0.1472 -0.0585
2 9 12 -1.1607 -0.0446
2 9 13 -2.1955 -0.0312
2 9 14 -2.8393 -0.0120
2 9 15 -2.7637 0.0228
2 9 16 -1.8757 0.0741
2 9 17 -0.3622 0.1255
2 9 18 1.3849 0.1480
2 9 19 2.9161 0.1176
2 9 20 3.8719 0.0338
2 9 21 4.0800 -0.0747
2 10 0 1.0221 0.0790
2 10 1 1.4352 0.1062
2 10 2 1.7178 0.0621
2 10 3 1.8753 -0.0225
2 10 4 1.8034 -0.0973
2 10 5 1.3840 -0.1239
2 10 6 0.6279 -0.0963
2 10 7 -0.2539 -0.0394
2 10 8 -0.9249 0.0114
2 10 9 -1.1097 0.0333
2 10 10 -0.7760 0.0268
2 10 11 -0.1846 0.0096
2 10 12 0.2384 0.0016
2 10 13 0.1399 0.0112
2 10 14 -0.5485 0.0331
2 10 15 -1.5508 0.0541
2 10 16 -2.3725 0.0615
2 10 17 -2.5436 0.0474
2 10 18 -1.8485 0.0085
2 10 19 -0.4301 -0.0549
2 10 20 1.2732 -0.1371
2 11 0 2.5301 0.0333
2 11 1 2.8098 -0.0131
2 11 2 2.8691 -0.0332
2 11 3 2.7913 -0.0222
2 11 4 2.6106 0.0112
2 11 5 2.3124 0.0484
2 11 6 1.9010 0.0697
2 11 7 1.4672 0.0640
2 11 8 1.1848 0.0347
2 11 9 1.2125 -0.0021
2 11 10 1.5605 -0.0268
2 11 11 2.0219 -0.0274
2 11 12 2.2406 -0.0061
2 11 13 1.8973 0.0224
2 11 14 0.9110 0.0397
2 11 15 -0.4719 0.0329
2 11 16 -1.7660 -0.0001
2 11 17 -2.4758 -0.0536
2 11 18 -2.3392 -0.1201
2 11 19 -1.4523 -0.1939
2 12 0 1.7914 -0.0149
2 12 1 1.8903 -0.0638
2 12 2 1.3900 -0.0738
2 12 3 0.3655 -0.0368
2 12 4 -0.8957 0.0258
2 12 5 -2.0208 0.0778
2 12 6 -2.7252 0.0914
2 12 7 -2.9143 0.0641
2 12 8 -2.6553 0.0192
2 12 9 -2.0589 -0.0109
2 12 10 -1.1777 -0.0050
2 12 11 -0.0107 0.0339
2 12 12 1.3900 0.0813
2 12 13 2.8059 0.1063
2 12 14 3.8483 0.0892
2 12 15 4.1076 0.0303
2 12 16 3.3831 -0.0534
2 12 17 1.8446 -0.1392
2 13 0 0.8488 0.0549
2 13 1 1.1817 0.0622
2 13 2 0.7287 0.0052
2 13 3 -0.4739 -0.0758
2 13 4 -2.0308 -0.1323
2 13 5 -3.3549 -0.1391
2 13 6 -3.9576 -0.1075
2 13 7 -3.6965 -0.0722
2 13 8 -2.8322 -0.0636
2 13 9 -1.8581 -0.0856
2 13 10 -1.2102 -0.1134
2 13 11 -1.0381 -0.1130
2 13 12 -1.1737 -0.0678
2 13 13 -1.3001 0.0075
2 13 14 -1.1920 0.0732
2 13 15 -0.8600 0.0880
2 14 0 -3.0106 0.0146
2 14 1 -2.8609 -0.0088
2 14 2 -2.1453 -0.0381
2 14 3 -1.0465 -0.0476
2 14 4 0.0255 -0.0162
2 14 5 0.6703 0.0541
2 14 6 0.7259 0.1329
2 14 7 0.3378 0.1768
2 14 8 -0.1665 0.1567
2 14 9 -0.5014 0.0804
2 14 10 -0.5885 -0.0071
2 14 11 -0.5614 -0.0469
2 14 12 -0.6234 -0.0014
2 14 13 -0.8766 0.1214
2 15 0 -2.3247 -0.1402
2 15 1 -2.8687 -0.1753
2 15 2 -3.2852 -0.1402
2 15 3 -3.4947 -0.0616
2 15 4 -3.5007 0.0210
2 15 5 -3.3965 0.0752
2 15 6 -3.3201 0.0866
2 15 7 -3.3760 0.0571
2 15 8 -3.5675 -0.0037
3 -14 0 1.6864 -0.0402
3 -14 1 2.2300 -0.0465
3 -13 0 3.3301 -0.0544
3 -13 1 2.6198 0.0534
3 -13 2 1.6877 0.1183
3 -13 3 1.0173 0.1052
3 -13 4 0.8408 0.0238
3 -13 5 1.0564 -0.0771
3 -13 6 1.3445 -0.1383
3 -12 0 -1.0364 0.0115
3 -12 1 -1.3175 0.0383
3 -12 2 -1.5945 0.0399
3 -12 3 -1.6486 0.0070
3 -12 4 -1.3843 -0.0504
3 -12 5 -0.8721 -0.1060
3 -12 6 -0.2985 -0.1311
3 -12 7 0.1307 -0.1099
3 -12 8 0.2752 -0.0466
3 -12 9 0.1003 0.0379
3 -12 10 -0.3268 0.1190
3 -11 0 -1.8472 0.0122
3 -11 1 -1.0127 -0.0011
3 -11 2 -0.4431 0.0309
3 -11 3 -0.2744 0.0879
3 -11 4 -0.3523 0.1367
3 -11 5 -0.3698 0.1515
3 -11 6 -0.0778 0.1278
3 -11 7 0.5547 0.0820
3 -11 8 1.3148 0.0391
3 -11 9 1.8615 0.0162
3 -11 10 1.9113 0.0146
3 -11 11 1.3945 0.0234
3 -11 12 0.4953 0.0301
3 -10 0 1.4900 -0.0008
3 -10 1 1.6244 0.0495
3 -10 2 1.6161 0.0747
3 -10 3 1.4360 0.0617
3 -10 4 1.0995 0.0160
3 -10 5 0.6296 -0.0424
3 -10 6 0.0505 -0.0904
3 -10 7 -0.5762 -0.1140
3 -10 8 -1.1106 -0.1136
3 -10 9 -1.3407 -0.1005
3 -10 10 -1.0629 -0.0869
3 -10 11 -0.2000 -0.0783
3 -10 12 1.1130 -0.0707
3 -10 13 2.5430 -0.0560
3 -10 14 3.6798 -0.0303
3 -9 0 -0.9106 -0.0081
3 -9 1 -0.9262 0.0131
3 -9 2 -1.0262 0.0139
3 -9 3 -1.1354 -0.0051
3 -9 4 -1.1597 -0.0312
3 -9 5 -1.0208 -0.0480
3 -9 6 -0.6986 -0.0467
3 -9 7 -0.2585 -0.0318
3 -9 8 0.1608 -0.0179
3 -9 9 0.4068 -0.0200
3 -9 10 0.3976 -0.0422
3 -9 11 0.1851 -0.0746
3 -9 12 -0.0488 -0.0981
3 -9 13 -0.0742 -0.0964
3 -9 14 0.2617 -0.0651
3 -9 15 0.9338 -0.0148
3 -9 16 1.7246 0.0353
3 -8 0 1.1718 -0.0406
3 -8 1 1.7643 -0.0797
3 -8 2 2.1133 -0.0596
3 -8 3 1.9842 0.0027
3 -8 4 1.3852 0.0699
3 -8 5 0.5786 0.1072
3 -8 6 -0.0613 0.1020
3 -8 7 -0.2704 0.0671
3 -8 8 -0.0613 0.0289
3 -8 9 0.2772 0.0081
3 -8 10 0.3608 0.0080
3 -8 11 -0.0352 0.0164
3 -8 12 -0.8072 0.0172
3 -8 13 -1.5566 0.0030
3 -8 14 -1.8166 -0.0212
3 -8 15 -1.3377 -0.0439
3 -8 16 -0.2544 -0.0569
3 -8 17 0.9729 -0.0609
3 -7 0 1.3916 0.0098
3 -7 1 2.5017 0.0104
3 -7 2 3.7300 0.0028
3 -7 3 4.6624 -0.0098
3 -7 4 4.9083 -0.0241
3 -7 5 4.2702 -0.0375
3 -7 6 2.8528 -0.0469
3 -7 7 1.0435 -0.0483
3 -7 8 -0.6442 -0.0386
3 -7 9 -1.7965 -0.0175
3 -7 10 -2.2772 0.0094
3 -7 11 -2.2616 0.0328
3 -7 12 -2.1088 0.0434
3 -7 13 -2.1449 0.0371
3 -7 14 -2.4833 0.0181
3 -7 15 -2.9776 -0.0033
3 -7 16 -3.3260 -0.0163
3 -7 17 -3.2556 -0.0147
3 -7 18 -2.6766 0.0009
3 -7 19 -1.7258 0.0248
3 -6 0 -0.6562 0.0113
3 -6 1 -0.5038 0.0420
3 -6 2 0.0201 0.0215
3 -6 3 0.9847 -0.0356
3 -6 4 2.1760 -0.0950
3 -6 5 3.1997 -0.1235
3 -6 6 3.7035 -0.1072
3 -6 7 3.5778 -0.0563
3 -6 8 3.0115 0.0038
3 -6 9 2.3682 0.0484
3 -6 10 1.9658 0.0659
3 -6 11 1.9006 0.0601
3 -6 12 2.0232 0.0431
3 -6 13 2.0689 0.0257
3 -6 14 1.8483 0.0120
3 -6 15 1.3699 0.0003
3 -6 16 0.8212 -0.0124
3 -6 17 0.4338 -0.0261
3 -6 18 0.3315 -0.0372
3 -6 19 0.4618 -0.0413
3 -6 20 0.6486 -0.0370
3 -5 0 -1.2961 0.0175
3 -5 1 -0.8822 -0.0031
3 -5 2 -0.5398 0.0093
3 -5 3 -0.1710 0.0443
3 -5 4 0.2915 0.0802
3 -5 5 0.8305 0.0971
3 -5 6 1.3388 0.0883
3 -5 7 1.6611 0.0615
3 -5 8 1.6580 0.0325
3 -5 9 1.2655 0.0143
3 -5 10 0.5242 0.0105
3 -5 11 -0.4269 0.0161
3 -5 12 -1.3918 0.0226
3 -5 13 -2.1778 0.0244
3 -5 14 -2.6564 0.0206
3 -5 15 -2.8021 0.0133
3 -5 16 -2.6913 0.0042
3 -5 17 -2.4589 -0.0067
3 -5 18 -2.2294 -0.0193
3 -5 19 -2.0556 -0.0312
3 -5 20 -1.8979 -0.0365
3 -5 21 -1.6576 -0.0292
3 -4 0 -0.0955 -0.0322
3 -4 1 0.7649 -0.0239
3 -4 2 1.5473 -0.0059
3 -4 3 2.1812 0.0153
3 -4 4 2.6135 0.0285
3 -4 5 2.8000 0.0238
3 -4 6 2.7173 -0.0009
3 -4 7 2.3864 -0.0371
3 -4 8 1.8858 -0.0698
3 -4 9 1.3343 -0.0855
3 -4 10 0.8413 -0.0797
3 -4 11 0.4526 -0.0591
3 -4 12 0.1229 -0.0362
3 -4 13 -0.2594 -0.0213
3 -4 14 -0.8027 -0.0163
3 -4 15 -1.5327 -0.0154
3 -4 16 -2.3461 -0.0108
3 -4 17 -3.0302 0.0002
3 -4 18 -3.3467 0.0131
3 -4 19 -3.1440 0.0188
3 -4 20 -2.4410 0.0105
3 -4 21 -1.4387 -0.0112
3 -3 0 0.1568 0.0750
3 -3 1 1.2222 0.1145
3 -3 2 2.3676 0.0867
3 -3 3 3.4062 0.0100
3 -3 4 4.0672 -0.0744
3 -3 5 4.1075 -0.1277
3 -3 6 3.4458 -0.1329
3 -3 7 2.2378 -0.0994
3 -3 8 0.8350 -0.0513
3 -3 9 -0.3656 -0.0109
3 -3 10 -1.0996 0.0122
3 -3 11 -1.3410 0.0215
3 -3 12 -1.2763 0.0255
3 -3 13 -1.1678 0.0296
3 -3 14 -1.1935 0.0336
3 -3 15 -1.3619 0.0346
3 -3 16 -1.5433 0.0320
3 -3 17 -1.5859 0.0284
3 -3 18 -1.4326 0.0277
3 -3 19 -1.1620 0.0312
3 -3 20 -0.9364 0.0363
3 -3 21 -0.8967 0.0385
3 -3 22 -1.0752 0.0351
3 -2 0 1.3018 -0.0349
3 -2 1 3.2805 -0.0508
3 -2 2 4.9131 -0.0380
3 -2 3 5.9877 -0.0057
3 -2 4 6.3611 0.0319
3 -2 5 5.9922 0.0625
3 -2 6 4.9731 0.0799
3 -2 7 3.5304 0.0832
3 -2 8 1.9750 0.0744
3 -2 9 0.6041 0.0567
3 -2 10 -0.4013 0.0339
3 -2 11 -1.0276 0.0105
3 -2 12 -1.3958 -0.0088
3 -2 13 -1.6615 -0.0213
3 -2 14 -1.9083 -0.0271
3 -2 15 -2.1021 -0.0288
3 -2 16 -2.1322 -0.0291
3 -2 17 -1.9071 -0.0285
3 -2 18 -1.4366 -0.0247
3 -2 19 -0.8435 -0.0147
3 -2 20 -0.2994 0.0018
3 -2 21 0.0698 0.0205
3 -2 22 0.2431 0.0336
3 -2 23 0.2929 0.0341
3 -1 0 2.7001 -0.0124
3 -1 1 5.2817 -0.0583
3 -1 2 7.3912 -0.0704
3 -1 3 8.9813 -0.0474
3 -1 4 10.0147 -0.0042
3 -1 5 10.4035 0.0379
3 -1 6 10.0295 0.0629
3 -1 7 8.8430 0.0660
3 -1 8 6.9685 0.0525
3 -1 9 4.7347 0.0315
3 -1 10 2.5865 0.0099
3 -1 11 0.9148 -0.0093
3 -1 12 -0.0994 -0.0255
3 -1 13 -0.5380 -0.0376
3 -1 14 -0.6620 -0.0434
3 -1 15 -0.7465 -0.0408
3 -1 16 -0.9316 -0.0302
3 -1 17 -1.1747 -0.0151
3 -1 18 -1.3194 -0.0009
3 -1 19 -1.2259 0.0083
3 -1 20 -0.8755 0.0111
3 -1 21 -0.3875 0.0093
3 -1 22 0.0519 0.0052
3 -1 23 0.2944 0.0006
3 0 0 -0.3110 0.0978
3 0 1 3.0987 0.0996
3 0 2 5.7458 0.0648
3 0 3 7.4600 0.0188
3 0 4 8.3181 -0.0126
3 0 5 8.5161 -0.0187
3 0 6 8.2344 -0.0071
3 0 7 7.5734 0.0057
3 0 8 6.5793 0.0082
3 0 9 5.3122 0.0013
3 0 10 3.8926 -0.0048
3 0 11 2.4897 -0.0003
3 0 12 1.2661 0.0156
3 0 13 0.3251 0.0337
3 0 14 -0.3018 0.0419
3 0 15 -0.6288 0.0341
3 0 16 -0.6853 0.0141
3 0 17 -0.5126 -0.0073
3 0 18 -0.1934 -0.0202
3 0 19 0.1214 -0.0210
3 0 20 0.2301 -0.0132
3 0 21 -0.0429 -0.0032
3 0 22 -0.7451 0.0037
3 0 23 -1.7324 0.0055
3 1 0 -0.4893 -0.0592
3 1 1 2.8515 -0.0397
3 1 2 5.6259 -0.0164
3 1 3 7.3376 0.0034
3 1 4 7.8740 0.0166
3 1 5 7.4618 0.0232
3 1 6 6.4931 0.0226
3 1 7 5.3362 0.0131
3 1 8 4.2270 -0.0052
3 1 9 3.2617 -0.0276
3 1 10 2.4471 -0.0442
3 1 11 1.7514 -0.0458
3 1 12 1.1265 -0.0300
3 1 13 0.5182 -0.0051
3 1 14 -0.1096 0.0138
3 1 15 -0.7335 0.0139
3 1 16 -1.2409 -0.0060
3 1 17 -1.4532 -0.0340
3 1 18 -1.2140 -0.0524
3 1 19 -0.5006 -0.0486
3 1 20 0.5103 -0.0241
3 1 21 1.4814 0.0063
3 1 22 2.0529 0.0233
3 1 23 2.0128 0.0146
3 1 24 1.4038 -0.0189
3 2 0 8.3229 0.0275
3 2 1 10.2602 0.0139
3 2 2 11.5176 0.0055
3 2 3 11.9260 0.0006
3 2 4 11.5244 -0.0015
3 2 5 10.5178 0.0017
3 2 6 9.1568 0.0124
3 2 7 7.6180 0.0281
3 2 8 5.9601 0.0407
3 2 9 4.1759 0.0409
3 2 10 2.2932 0.0262
3 2 11 0.4397 0.0042
3 2 12 -1.1772 -0.0104
3 2 13 -2.3643 -0.0061
3 2 14 -3.0399 0.0173
3 2 15 -3.2635 0.0469
3 2 16 -3.1735 0.0655
3 2 17 -2.8791 0.0633
3 2 18 -2.3844 0.0445
3 2 19 -1.6030 0.0242
3 2 20 -0.4577 0.0177
3 2 21 1.0034 0.0294
3 2 22 2.5550 0.0508
3 2 23 3.8515 0.0674
3 2 24 4.5683 0.0698
3 3 0 13.4001 0.0368
3 3 1 16.4691 0.0238
3 3 2 18.4382 0.0218
3 3 3 19.0917 0.0341
3 3 4 18.4582 0.0513
3 3 5 16.8034 0.0572
3 3 6 14.5279 0.0414
3 3 7 12.0166 0.0075
3 3 8 9.5183 -0.0279
3 3 9 7.1174 -0.0459
3 3 10 4.8019 -0.0373
3 3 11 2.5741 -0.0086
3 3 12 0.5234 0.0236
3 3 13 -1.1830 0.0429
3 3 14 -2.3811 0.0428
3 3 15 -3.0013 0.0292
3 3 16 -3.1049 0.0135
3 3 17 -2.8411 0.0042
3 3 18 -2.3583 0.0015
3 3 19 -1.7316 -0.0010
3 3 20 -0.9575 -0.0115
3 3 21 -0.0164 -0.0342
3 3 22 1.0439 -0.0679
3 3 23 2.0660 -0.1078
3 3 24 2.8185 -0.1476
3 4 0 4.2764 -0.1330
3 4 1 7.7515 -0.1074
3 4 2 10.6677 -0.0842
3 4 3 12.6686 -0.0662
3 4 4 13.5930 -0.0528
3 4 5 13.4574 -0.0434
3 4 6 12.4031 -0.0382
3 4 7 10.6472 -0.0367
3 4 8 8.4535 -0.0350
3 4 9 6.1109 -0.0268
3 4 10 3.8976 -0.0075
3 4 11 2.0252 0.0208
3 4 12 0.5853 0.0479
3 4 13 -0.4647 0.0600
3 4 14 -1.2559 0.0482
3 4 15 -1.9187 0.0151
3 4 16 -2.4981 -0.0247
3 4 17 -2.9264 -0.0517
3 4 18 -3.0722 -0.0517
3 4 19 -2.8369 -0.0232
3 4 20 -2.2366 0.0219
3 4 21 -1.4181 0.0646
3 4 22 -0.5968 0.0883
3 4 23 0.0416 0.0847
3 4 24 0.4165 0.0560
3 5 0 0.4063 0.0360
3 5 1 3.4258 0.0565
3 5 2 6.0377 0.0423
3 5 3 7.8897 -0.0038
3 5 4 8.8303 -0.0566
3 5 5 8.8994 -0.0835
3 5 6 8.2476 -0.0652
3 5 7 7.0440 -0.0088
3 5 8 5.4342 0.0560
3 5 9 3.5619 0.0949
3 5 10 1.6207 0.0904
3 5 11 -0.1275 0.0504
3 5 12 -1.4038 0.0010
3 5 13 -2.0142 -0.0316
3 5 14 -1.9418 -0.0375
3 5 15 -1.3630 -0.0259
3 5 16 -0.5707 -0.0146
3 5 17 0.1530 -0.0148
3 5 18 0.6430 -0.0226
3 5 19 0.8776 -0.0239
3 5 20 0.9260 -0.0070
3 5 21 0.8634 0.0261
3 5 22 0.7176 0.0599
3 5 23 0.4774 0.0747
3 6 0 -4.3810 0.0846
3 6 1 -2.4135 0.0768
3 6 2 -0.1602 0.0899
3 6 3 1.8013 0.1116
3 6 4 2.9737 0.1208
3 6 5 3.1920 0.1036
3 6 6 2.6846 0.0641
3 6 7 1.9081 0.0225
3 6 8 1.2661 0.0010
3 6 9 0.8948 0.0083
3 6 10 0.6413 0.0329
3 6 11 0.2294 0.0513
3 6 12 -0.5122 0.0446
3 6 13 -1.5144 0.0125
3 6 14 -2.5011 -0.0270
3 6 15 -3.1512 -0.0494
3 6 16 -3.2706 -0.0411
3 6 17 -2.8669 -0.0080
3 6 18 -2.1025 0.0291
3 6 19 -1.1832 0.0489
3 6 20 -0.2715 0.0430
3 6 21 0.5283 0.0201
3 6 22 1.1328 -0.0018
3 6 23 1.4495 -0.0083
3 7 0 -3.1896 -0.0880
3 7 1 -3.3412 -0.0953
3 7 2 -3.1412 -0.0903
3 7 3 -2.5423 -0.0702
3 7 4 -1.7284 -0.0421
3 7 5 -1.0144 -0.0191
3 7 6 -0.6623 -0.0112
3 7 7 -0.7372 -0.0174
3 7 8 -1.0937 -0.0262
3 7 9 -1.4895 -0.0253
3 7 10 -1.7447 -0.0113
3 7 11 -1.8383 0.0066
3 7 12 -1.8896 0.0145
3 7 13 -2.0456 0.0061
3 7 14 -2.3570 -0.0110
3 7 15 -2.7214 -0.0194
3 7 16 -2.9243 -0.0060
3 7 17 -2.7486 0.0252
3 7 18 -2.0896 0.0526
3 7 19 -1.0164 0.0503
3 7 20 0.2441 0.0070
3 7 21 1.3876 -0.0636
3 7 22 2.1400 -0.1282
3 8 0 -1.8264 -0.0005
3 8 1 -1.1187 0.0148
3 8 2 -0.1864 -0.0051
3 8 3 0.9360 -0.0475
3 8 4 2.0372 -0.0830
3 8 5 2.7495 -0.0848
3 8 6 2.7074 -0.0466
3 8 7 1.7607 0.0135
3 8 8 0.1063 0.0650
3 8 9 -1.7564 0.0839
3 8 10 -3.2376 0.0658
3 8 11 -3.9251 0.0267
3 8 12 -3.7603 -0.0088
3 8 13 -3.0299 -0.0212
3 8 14 -2.1851 -0.0048
3 8 15 -1.5970 0.0325
3 8 16 -1.3822 0.0759
3 8 17 -1.3817 0.1095
3 8 18 -1.2890 0.1203
3 8 19 -0.8428 0.0992
3 8 20 0.0212 0.0431
3 8 21 1.1327 -0.0418
3 8 22 2.1695 -0.1385
3 9 0 0.4771 0.1047
3 9 1 1.6715 0.0836
3 9 2 2.8741 0.0722
3 9 3 3.8257 0.0743
3 9 4 4.3202 0.0814
3 9 5 4.3013 0.0800
3 9 6 3.8738 0.0614
3 9 7 3.2273 0.0277
3 9 8 2.5238 -0.0100
3 9 9 1.8197 -0.0386
3 9 10 1.0687 -0.0514
3 9 11 0.1999 -0.0502
3 9 12 -0.7834 -0.0422
3 9 13 -1.7499 -0.0321
3 9 14 -2.4680 -0.0186
3 9 15 -2.7029 0.0038
3 9 16 -2.3305 0.0371
3 9 17 -1.4058 0.0729
3 9 18 -0.1511 0.0922
3 9 19 1.1262 0.0738
3 9 20 2.1429 0.0070
3 9 21 2.7258 -0.0979
3 10 0 0.5832 -0.0260
3 10 1 0.8411 -0.0598
3 10 2 1.0321 -0.0857
3 10 3 1.2039 -0.0837
3 10 4 1.3078 -0.0547
3 10 5 1.2816 -0.0190
3 10 6 1.1206 -0.0013
3 10 7 0.8820 -0.0117
3 10 8 0.6295 -0.0394
3 10 9 0.3756 -0.0604
3 10 10 0.0747 -0.0557
3 10 11 -0.3204 -0.0240
3 10 12 -0.7842 0.0187
3 10 13 -1.1857 0.0528
3 10 14 -1.3299 0.0688
3 10 15 -1.0523 0.0728
3 10 16 -0.3121 0.0776
3 10 17 0.7722 0.0885
3 10 18 1.9617 0.0953
3 10 19 2.9842 0.0775
3 10 20 3.6244 0.0196
3 11 0 1.0359 -0.0170
3 11 1 1.5982 0.0035
3 11 2 1.9853 -0.0185
3 11 3 2.2180 -0.0663
3 11 4 2.2522 -0.1051
3 11 5 2.0085 -0.1074
3 11 6 1.4688 -0.0712
3 11 7 0.7559 -0.0192
3 11 8 0.1191 0.0206
3 11 9 -0.1868 0.0342
3 11 10 -0.0573 0.0297
3 11 11 0.3759 0.0266
3 11 12 0.7935 0.0387
3 11 13 0.8571 0.0616
3 11 14 0.4001 0.0764
3 11 15 -0.4652 0.0630
3 11 16 -1.3880 0.0149
3 11 17 -1.9445 -0.0576
3 11 18 -1.8402 -0.1358
3 11 19 -1.0489 -0.2047
3 12 0 1.9058 0.1117
3 12 1 2.2657 0.0799
3 12 2 2.4107 0.0438
3 12 3 2.3911 0.0201
3 12 4 2.2293 0.0188
3 12 5 1.9201 0.0364
3 12 6 1.4933 0.0565
3 12 7 1.0740 0.0602
3 12 8 0.8702 0.0389
3 12 9 1.0642 0.0023
3 12 10 1.6683 -0.0262
3 12 11 2.4496 -0.0238
3 12 12 2.9988 0.0159
3 12 13 2.9304 0.0766
3 12 14 2.1040 0.1277
3 12 15 0.7336 0.1414
3 12 16 -0.6936 0.1077
3 12 17 -1.6489 0.0376
3 13 0 0.1145 -0.0433
3 13 1 0.9488 -0.1057
3 13 2 1.4472 -0.1335
3 13 3 1.3547 -0.1067
3 13 4 0.6004 -0.0397
3 13 5 -0.6638 0.0280
3 13 6 -2.1247 0.0564
3 13 7 -3.4130 0.0299
3 13 8 -4.1933 -0.0329
3 13 9 -4.2139 -0.0907
3 13 10 -3.3393 -0.1043
3 13 11 -1.5958 -0.0600
3 13 12 0.7760 0.0218
3 13 13 3.3089 0.0977
3 13 14 5.3954 0.1239
3 13 15 6.4778 0.0790
3 14 0 1.0465 -0.0197
3 14 1 1.8129 -0.0176
3 14 2 1.7888 -0.0538
3 14 3 0.8710 -0.0936
3 14 4 -0.6398 -0.0980
3 14 5 -2.1673 -0.0529
3 14 6 -3.1485 0.0187
3 14 7 -3.3190 0.0717
3 14 8 -2.8260 0.0699
3 14 9 -2.1025 0.0123
3 14 10 -1.5871 -0.0638
3 14 11 -1.4712 -0.1052
3 14 12 -1.6278 -0.0770
3 15 0 -4.2982 0.1838
3 15 1 -4.3821 0.1256
3 15 2 -4.0050 0.0241
3 15 3 -3.3010 -0.0748
3 15 4 -2.5707 -0.1178
3 15 5 -2.0935 -0.0793
3 15 6 -1.9531 0.0185
3 15 7 -1.9990 0.1154
3 15 8 -1.9724 0.1485
4 -13 0 1.1972 0.0280
4 -13 1 1.7560 0.0009
4 -13 2 2.0149 -0.0151
4 -13 3 1.9328 -0.0211
4 -13 4 1.6596 -0.0183
4 -12 0 0.2616 -0.1352
4 -12 1 0.2579 -0.0706
4 -12 2 -0.1558 -0.0066
4 -12 3 -0.5430 0.0198
4 -12 4 -0.5826 -0.0032
4 -12 5 -0.2366 -0.0556
4 -12 6 0.2710 -0.1004
4 -12 7 0.6285 -0.1071
4 -12 8 0.6425 -0.0709
4 -11 0 -2.1764 0.0712
4 -11 1 -2.1764 0.0672
4 -11 2 -2.2965 0.0497
4 -11 3 -2.3678 0.0143
4 -11 4 -2.2033 -0.0328
4 -11 5 -1.7121 -0.0760
4 -11 6 -0.9518 -0.0980
4 -11 7 -0.1058 -0.0896
4 -11 8 0.5928 -0.0551
4 -11 9 0.9505 -0.0087
4 -11 10 0.8826 0.0348
4 -11 11 0.4414 0.0679
4 -10 0 -2.1685 0.0664
4 -10 1 -1.1866 0.0630
4 -10 2 -0.2499 0.0803
4 -10 3 0.2669 0.1087
4 -10 4 0.2864 0.1262
4 -10 5 0.0408 0.1134
4 -10 6 -0.0864 0.0670
4 -10 7 0.2020 0.0018
4 -10 8 0.9318 -0.0587
4 -10 9 1.8289 -0.0961
4 -10 10 2.4618 -0.1062
4 -10 11 2.4780 -0.0986
4 -10 12 1.8003 -0.0870
4 -10 13 0.6744 -0.0802
4 -9 0 0.5917 -0.1440
4 -9 1 0.6631 -0.1177
4 -9 2 0.8910 -0.0863
4 -9 3 1.1403 -0.0619
4 -9 4 1.2440 -0.0495
4 -9 5 1.0546 -0.0462
4 -9 6 0.5119 -0.0445
4 -9 7 -0.2996 -0.0383
4 -9 8 -1.1478 -0.0274
4 -9 9 -1.7273 -0.0175
4 -9 10 -1.7923 -0.0157
4 -9 11 -1.2806 -0.0248
4 -9 12 -0.3578 -0.0410
4 -9 13 0.6507 -0.0556
4 -9 14 1.4089 -0.0611
4 -9 15 1.7175 -0.0565
4 -8 0 -1.8481 -0.0099
4 -8 1 -2.0329 -0.0067
4 -8 2 -2.2531 -0.0152
4 -8 3 -2.3527 -0.0310
4 -8 4 -2.2099 -0.0403
4 -8 5 -1.7949 -0.0297
4 -8 6 -1.1785 0.0033
4 -8 7 -0.4976 0.0466
4 -8 8 0.0975 0.0790
4 -8 9 0.4876 0.0828
4 -8 10 0.6057 0.0543
4 -8 11 0.4416 0.0069
4 -8 12 0.0405 -0.0362
4 -8 13 -0.5005 -0.0554
4 -8 14 -1.0430 -0.0454
4 -8 15 -1.4376 -0.0173
4 -8 16 -1.5718 0.0088
4 -8 17 -1.4164 0.0158
4 -7 0 -0.2260 0.0562
4 -7 1 0.2434 0.0468
4 -7 2 0.5824 0.0524
4 -7 3 0.5727 0.0660
4 -7 4 0.1913 0.0729
4 -7 5 -0.3617 0.0616
4 -7 6 -0.7686 0.0326
4 -7 7 -0.7814 -0.0012
4 -7 8 -0.3791 -0.0239
4 -7 9 0.2055 -0.0270
4 -7 10 0.6162 -0.0146
4 -7 11 0.5874 0.0005
4 -7 12 0.1122 0.0063
4 -7 13 -0.5416 -0.0007
4 -7 14 -0.9836 -0.0148
4 -7 15 -0.9278 -0.0280
4 -7 16 -0.3580 -0.0372
4 -7 17 0.4674 -0.0470
4 -7 18 1.1717 -0.0650
4 -6 0 0.7565 -0.0896
4 -6 1 1.6960 -0.0767
4 -6 2 2.8558 -0.0537
4 -6 3 3.9350 -0.0285
4 -6 4 4.5905 -0.0112
4 -6 5 4.5851 -0.0088
4 -6 6 3.9078 -0.0203
4 -6 7 2.7942 -0.0360
4 -6 8 1.6259 -0.0431
4 -6 9 0.7550 -0.0329
4 -6 10 0.3492 -0.0065
4 -6 11 0.3370 0.0252
4 -6 12 0.4787 0.0479
4 -6 13 0.5133 0.0525
4 -6 14 0.2939 0.0397
4 -6 15 -0.1578 0.0193
4 -6 16 -0.6937 0.0029
4 -6 17 -1.1346 -0.0026
4 -6 18 -1.3576 0.0020
4 -6 19 -1.3321 0.0102
4 -5 0 -2.8980 -0.0200
4 -5 1 -2.4164 0.0015
4 -5 2 -1.5323 -0.0057
4 -5 3 -0.1891 -0.0352
4 -5 4 1.3876 -0.0663
4 -5 5 2.7671 -0.0778
4 -5 6 3.5386 -0.0615
4 -5 7 3.5425 -0.0260
4 -5 8 2.9567 0.0102
4 -5 9 2.1809 0.0310
4 -5 10 1.5971 0.0319
4 -5 11 1.3617 0.0200
4 -5 12 1.3622 0.0071
4 -5 13 1.3517 0.0012
4 -5 14 1.1577 0.0018
4 -5 15 0.8157 0.0026
4 -5 16 0.5380 -0.0028
4 -5 17 0.5490 -0.0157
4 -5 18 0.9102 -0.0317
4 -5 19 1.4583 -0.0436
4 -5 20 1.8991 -0.0464
4 -4 0 -1.9530 0.1622
4 -4 1 -1.3752 0.1650
4 -4 2 -0.7522 0.1556
4 -4 3 -0.0346 0.1372
4 -4 4 0.7854 0.1122
4 -4 5 1.6141 0.0831
4 -4 6 2.2683 0.0537
4 -4 7 2.5556 0.0278
4 -4 8 2.3666 0.0072
4 -4 9 1.7239 -0.0092
4 -4 10 0.7615 -0.0241
4 -4 11 -0.3397 -0.0390
4 -4 12 -1.4165 -0.0519
4 -4 13 -2.3509 -0.0578
4 -4 14 -3.0616 -0.0523
4 -4 15 -3.4880 -0.0357
4 -4 16 -3.5923 -0.0138
4 -4 17 -3.3845 0.0038
4 -4 18 -2.9419 0.0103
4 -4 19 -2.3970 0.0049
4 -4 20 -1.8858 -0.0058
4 -4 21 -1.4871 -0.0126
4 -3 0 -2.0798 -0.1020
4 -3 1 -1.3304 -0.1076
4 -3 2 -0.4653 -0.0932
4 -3 3 0.4639 -0.0655
4 -3 4 1.3913 -0.0385
4 -3 5 2.2087 -0.0258
4 -3 6 2.7721 -0.0321
4 -3 7 2.9540 -0.0500
4 -3 8 2.7141 -0.0642
4 -3 9 2.1406 -0.0614
4 -3 10 1.4234 -0.0379
4 -3 11 0.7634 -0.0019
4 -3 12 0.2672 0.0316
4 -3 13 -0.1069 0.0505
4 -3 14 -0.5141 0.0515
4 -3 15 -1.1110 0.0412
4 -3 16 -1.9319 0.0300
4 -3 17 -2.8297 0.0255
4 -3 18 -3.5222 0.0286
4 -3 19 -3.7279 0.0343
4 -3 20 -3.3169 0.0367
4 -3 21 -2.3928 0.0336
4 -3 22 -1.2579 0.0268
4 -2 0 -2.8347 -0.0441
4 -2 1 -2.0502 -0.0240
4 -2 2 -0.9668 -0.0318
4 -2 3 0.2528 -0.0589
4 -2 4 1.3534 -0.0843
4 -2 5 2.0702 -0.0887
4 -2 6 2.2330 -0.0668
4 -2 7 1.8395 -0.0288
4 -2 8 1.0558 0.0083
4 -2 9 0.1398 0.0319
4 -2 10 -0.6731 0.0399
4 -2 11 -1.2596 0.0386
4 -2 12 -1.6271 0.0356
4 -2 13 -1.8580 0.0339
4 -2 14 -2.0239 0.0309
4 -2 15 -2.1261 0.0228
4 -2 16 -2.0993 0.0095
4 -2 17 -1.8684 -0.0049
4 -2 18 -1.4177 -0.0143
4 -2 19 -0.8244 -0.0150
4 -2 20 -0.2355 -0.0073
4 -2 21 0.1956 0.0056
4 -2 22 0.3771 0.0200
4 -1 0 -0.1431 0.1396
4 -1 1 1.7792 0.1181
4 -1 2 3.5966 0.0878
4 -1 3 5.0273 0.0577
4 -1 4 5.8508 0.0370
4 -1 5 5.9582 0.0315
4 -1 6 5.3906 0.0400
4 -1 7 4.3432 0.0535
4 -1 8 3.1158 0.0603
4 -1 9 2.0111 0.0522
4 -1 10 1.2216 0.0299
4 -1 11 0.7619 0.0025
4 -1 12 0.4879 -0.0177
4 -1 13 0.1971 -0.0229
4 -1 14 -0.2472 -0.0143
4 -1 15 -0.8391 -0.0007
4 -1 16 -1.4441 0.0085
4 -1 17 -1.8877 0.0090
4 -1 18 -2.0571 0.0043
4 -1 19 -1.9531 0.0017
4 -1 20 -1.6671 0.0065
4 -1 21 -1.3115 0.0178
4 -1 22 -0.9591 0.0286
4 -1 23 -0.6297 0.0312
4 0 0 -1.1620 0.0027
4 0 1 1.2400 -0.0210
4 0 2 3.4761 -0.0316
4 0 3 5.4388 -0.0264
4 0 4 7.0460 -0.0111
4 0 5 8.1934 0.0052
4 0 6 8.7500 0.0150
4 0 7 8.6144 0.0151
4 0 8 7.7980 0.0059
4 0 9 6.4726 -0.0103
4 0 10 4.9387 -0.0298
4 0 11 3.5188 -0.0478
4 0 12 2.4335 -0.0585
4 0 13 1.7311 -0.0577
4 0 14 1.3074 -0.0453
4 0 15 0.9977 -0.0269
4 0 16 0.6794 -0.0111
4 0 17 0.3261 -0.0051
4 0 18 -0.0079 -0.0097
4 0 19 -0.2465 -0.0187
4 0 20 -0.3458 -0.0231
4 0 21 -0.3110 -0.0176
4 0 22 -0.1771 -0.0042
4 0 23 0.0190 0.0091
4 1 0 -4.0764 -0.0873
4 1 1 -1.0459 -0.0663
4 1 2 1.5778 -0.0477
4 1 3 3.6097 -0.0311
4 1 4 5.0914 -0.0149
4 1 5 6.1783 -0.0007
4 1 6 6.9901 0.0069
4 1 7 7.5202 0.0040
4 1 8 7.6541 -0.0086
4 1 9 7.2721 -0.0244
4 1 10 6.3591 -0.0348
4 1 11 5.0508 -0.0345
4 1 12 3.5936 -0.0244
4 1 13 2.2513 -0.0102
4 1 14 1.2180 0.0018
4 1 15 0.5792 0.0084
4 1 16 0.3203 0.0101
4 1 17 0.3554 0.0086
4 1 18 0.5490 0.0048
4 1 19 0.7288 -0.0011
4 1 20 0.7097 -0.0082
4 1 21 0.3462 -0.0136
4 1 22 -0.3976 -0.0133
4 1 23 -1.4009 -0.0059
4 2 0 -4.1963 0.0514
4 2 1 -1.0126 0.0523
4 2 2 2.0428 0.0533
4 2 3 4.3966 0.0542
4 2 4 5.7903 0.0551
4 2 5 6.2971 0.0544
4 2 6 6.1934 0.0478
4 2 7 5.7828 0.0310
4 2 8 5.2719 0.0040
4 2 9 4.7411 -0.0265
4 2 10 4.1853 -0.0482
4 2 11 3.5682 -0.0504
4 2 12 2.8507 -0.0304
4 2 13 1.9977 0.0033
4 2 14 0.9914 0.0353
4 2 15 -0.1316 0.0523
4 2 16 -1.2389 0.0505
4 2 17 -2.1021 0.0376
4 2 18 -2.4669 0.0266
4 2 19 -2.1769 0.0270
4 2 20 -1.2827 0.0387
4 2 21 -0.0651 0.0528
4 2 22 1.0631 0.0589
4 2 23 1.7328 0.0513
4 3 0 2.4546 0.0787
4 3 1 4.3523 0.0589
4 3 2 6.0734 0.0294
4 3 3 7.3078 -0.0028
4 3 4 7.9059 -0.0273
4 3 5 7.9207 -0.0342
4 3 6 7.5386 -0.0203
4 3 7 6.9455 0.0066
4 3 8 6.2180 0.0305
4 3 9 5.3093 0.0362
4 3 10 4.1336 0.0189
4 3 11 2.6830 -0.0115
4 3 12 1.0938 -0.0366
4 3 13 -0.3870 -0.0420
4 3 14 -1.5109 -0.0275
4 3 15 -2.1407 -0.0071
4 3 16 -2.2954 0.0009
4 3 17 -2.1036 -0.0127
4 3 18 -1.7059 -0.0406
4 3 19 -1.1755 -0.0648
4 3 20 -0.5089 -0.0695
4 3 21 0.3140 -0.0536
4 3 22 1.2509 -0.0312
4 3 23 2.1587 -0.0215
4 4 0 4.7564 -0.0588
4 4 1 7.2493 -0.0469
4 4 2 9.4997 -0.0285
4 4 3 11.2280 -0.0105
4 4 4 12.2157 -0.0026
4 4 5 12.3805 -0.0108
4 4 6 11.7973 -0.0319
4 4 7 10.6450 -0.0536
4 4 8 9.1153 -0.0609
4 4 9 7.3418 -0.0460
4 4 10 5.3935 -0.0144
4 4 11 3.3283 0.0177
4 4 12 1.2560 0.0325
4 4 13 -0.6426 0.0210
4 4 14 -2.1631 -0.0115
4 4 15 -3.1615 -0.0495
4 4 16 -3.6167 -0.0765
4 4 17 -3.6275 -0.0836
4 4 18 -3.3444 -0.0730
4 4 19 -2.8846 -0.0536
4 4 20 -2.2870 -0.0354
4 4 21 -1.5385 -0.0252
4 4 22 -0.6470 -0.0261
4 4 23 0.2925 -0.0395
4 5 0 0.4901 -0.0786
4 5 1 2.9019 -0.0730
4 5 2 5.2279 -0.0599
4 5 3 7.2491 -0.0419
4 5 4 8.7898 -0.0220
4 5 5 9.7040 -0.0043
4 5 6 9.8853 0.0078
4 5 7 9.3073 0.0139
4 5 8 8.0677 0.0177
4 5 9 6.3945 0.0246
4 5 10 4.5900 0.0371
4 5 11 2.9295 0.0511
4 5 12 1.5629 0.0571
4 5 13 0.4780 0.0456
4 5 14 -0.4514 0.0146
4 5 15 -1.3553 -0.0274
4 5 16 -2.2603 -0.0644
4 5 17 -3.0487 -0.0805
4 5 18 -3.5108 -0.0680
4 5 19 -3.4609 -0.0300
4 5 20 -2.8496 0.0221
4 5 21 -1.8083 0.0756
4 5 22 -0.6023 0.1205
4 5 23 0.4784 0.1510
4 6 0 -2.7148 0.0849
4 6 1 -0.3183 0.0895
4 6 2 2.1805 0.0696
4 6 3 4.4433 0.0304
4 6 4 6.1808 -0.0087
4 6 5 7.1915 -0.0246
4 6 6 7.3774 -0.0059
4 6 7 6.7474 0.0386
4 6 8 5.4193 0.0840
4 6 9 3.6193 0.1043
4 6 10 1.6660 0.0883
4 6 11 -0.0817 0.0460
4 6 12 -1.3116 0.0013
4 6 13 -1.8531 -0.0237
4 6 14 -1.7359 -0.0218
4 6 15 -1.1742 -0.0026
4 6 16 -0.4777 0.0167
4 6 17 0.0729 0.0245
4 6 18 0.3239 0.0223
4 6 19 0.2756 0.0214
4 6 20 0.0348 0.0324
4 6 21 -0.2705 0.0559
4 6 22 -0.5588 0.0815
4 6 23 -0.8117 0.0951
4 7 0 -5.9527 0.0140
4 7 1 -5.2363 0.0312
4 7 2 -3.8323 0.0480
4 7 3 -1.9859 0.0560
4 7 4 -0.1341 0.0442
4 7 5 1.3147 0.0088
4 7 6 2.1698 -0.0410
4 7 7 2.4988 -0.0852
4 7 8 2.5106 -0.1035
4 7 9 2.3766 -0.0879
4 7 10 2.1194 -0.0482
4 7 11 1.6368 -0.0062
4 7 12 0.8313 0.0180
4 7 13 -0.2595 0.0185
4 7 14 -1.4270 0.0060
4 7 15 -2.3730 -0.0004
4 7 16 -2.8511 0.0124
4 7 17 -2.7754 0.0423
4 7 18 -2.2371 0.0724
4 7 19 -1.4355 0.0825
4 7 20 -0.5815 0.0617
4 7 21 0.1656 0.0156
4 7 22 0.7076 -0.0370
4 8 0 -3.8933 -0.0183
4 8 1 -4.3817 -0.0258
4 8 2 -4.7521 -0.0276
4 8 3 -4.6261 -0.0169
4 8 4 -3.8931 0.0042
4 8 5 -2.7668 0.0241
4 8 6 -1.6424 0.0304
4 8 7 -0.8656 0.0196
4 8 8 -0.5658 0.0006
4 8 9 -0.6446 -0.0118
4 8 10 -0.8997 -0.0078
4 8 11 -1.1791 0.0097
4 8 12 -1.4583 0.0284
4 8 13 -1.8020 0.0376
4 8 14 -2.2536 0.0380
4 8 15 -2.7427 0.0412
4 8 16 -3.0777 0.0590
4 8 17 -3.0303 0.0903
4 8 18 -2.4591 0.1159
4 8 19 -1.3987 0.1087
4 8 20 -0.0668 0.0516
4 8 21 1.2138 -0.0478
4 9 0 -3.2056 -0.0247
4 9 1 -2.4894 -0.0288
4 9 2 -1.6317 -0.0430
4 9 3 -0.5723 -0.0609
4 9 4 0.6383 -0.0672
4 9 5 1.7450 -0.0504
4 9 6 2.3628 -0.0127
4 9 7 2.1918 0.0293
4 9 8 1.2302 0.0551
4 9 9 -0.1641 0.0540
4 9 10 -1.4249 0.0316
4 9 11 -2.0622 0.0057
4 9 12 -1.9145 -0.0064
4 9 13 -1.2191 0.0025
4 9 14 -0.4613 0.0265
4 9 15 -0.0939 0.0531
4 9 16 -0.2902 0.0720
4 9 17 -0.8657 0.0784
4 9 18 -1.3990 0.0708
4 9 19 -1.4723 0.0454
4 9 20 -0.8955 -0.0039
4 9 21 0.2018 -0.0803
4 10 0 0.1771 0.0564
4 10 1 1.1708 0.0556
4 10 2 2.1783 0.0500
4 10 3 3.0617 0.0503
4 10 4 3.6701 0.0579
4 10 5 3.9032 0.0641
4 10 6 3.7562 0.0574
4 10 7 3.3208 0.0321
4 10 8 2.7408 -0.0060
4 10 9 2.1440 -0.0415
4 10 10 1.5879 -0.0584
4 10 11 1.0500 -0.0499
4 10 12 0.4703 -0.0220
4 10 13 -0.1791 0.0100
4 10 14 -0.8395 0.0315
4 10 15 -1.3623 0.0373
4 10 16 -1.5662 0.0329
4 10 17 -1.3262 0.0280
4 10 18 -0.6468 0.0260
4 10 19 0.3215 0.0188
4 10 20 1.3314 -0.0091
4 11 0 -2.0126 0.0416
4 11 1 -1.7975 0.0106
4 11 2 -1.2764 -0.0271
4 11 3 -0.4593 -0.0407
4 11 4 0.4356 -0.0184
4 11 5 1.0989 0.0240
4 11 6 1.2914 0.0552
4 11 7 0.9572 0.0514
4 11 8 0.2352 0.0139
4 11 9 -0.6167 -0.0310
4 11 10 -1.3297 -0.0514
4 11 11 -1.7078 -0.0314
4 11 12 -1.6627 0.0166
4 11 13 -1.2065 0.0608
4 11 14 -0.4275 0.0706
4 11 15 0.5364 0.0365
4 11 16 1.5227 -0.0256
4 11 17 2.3736 -0.0855
4 11 18 2.9664 -0.1192
4 12 0 -0.0666 -0.0188
4 12 1 0.2454 0.0026
4 12 2 0.4499 -0.0026
4 12 3 0.6174 -0.0266
4 12 4 0.7956 -0.0438
4 12 5 0.9611 -0.0328
4 12 6 1.0446 0.0054
4 12 7 1.0038 0.0481
4 12 8 0.8785 0.0691
4 12 9 0.7799 0.0595
4 12 10 0.8177 0.0355
4 12 11 1.0162 0.0248
4 12 12 1.2782 0.0440
4 12 13 1.4287 0.0824
4 12 14 1.3133 0.1064
4 12 15 0.8942 0.0812
4 12 16 0.2873 -0.0048
4 12 17 -0.2831 -0.1300
4 13 0 -0.4811 0.0290
4 13 1 -0.3103 0.0166
4 13 2 -0.3207 -0.0205
4 13 3 -0.5265 -0.0642
4 13 4 -0.9216 -0.0909
4 13 5 -1.4718 -0.0867
4 13 6 -2.0730 -0.0581
4 13 7 -2.5224 -0.0281
4 13 8 -2.5617 -0.0205
4 13 9 -2.0013 -0.0418
4 13 10 -0.8615 -0.0741
4 13 11 0.5663 -0.0875
4 13 12 1.8065 -0.0610
4 13 13 2.4119 -0.0004
4 13 14 2.1905 0.0628
4 13 15 1.3128 0.0899
4 14 0 -0.0144 0.0489
4 14 1 1.0577 -0.0112
4 14 2 2.3102 -0.0472
4 14 3 3.2443 -0.0310
4 14 4 3.3691 0.0324
4 14 5 2.4277 0.1069
4 14 6 0.5271 0.1460
4 14 7 -1.8737 0.1213
4 14 8 -4.1046 0.0402
4 14 9 -5.4943 -0.0562
4 14 10 -5.5807 -0.1151
4 14 11 -4.2611 -0.1015
4 14 12 -1.8372 -0.0181
4 15 0 1.8595 0.0253
4 15 1 2.7162 0.0020
4 15 2 2.9811 -0.0431
4 15 3 2.4992 -0.0774
4 15 4 1.4335 -0.0653
4 15 5 0.1972 0.0029
4 15 6 -0.7593 0.0987
4 15 7 -1.1850 0.1677
4 15 8 -1.1435 0.1628
5 -13 0 2.0129 0.0329
5 -13 1 1.7790 0.0645
5 -12 0 -0.7666 -0.0097
5 -12 1 -0.0042 -0.0420
5 -12 2 0.5902 -0.0679
5 -12 3 0.8799 -0.0820
5 -12 4 0.8750 -0.0842
5 -12 5 0.7500 -0.0772
5 -12 6 0.7635 -0.0646
5 -11 0 -2.9569 -0.0689
5 -11 1 -2.5501 -0.0526
5 -11 2 -2.3841 -0.0196
5 -11 3 -2.2242 0.0077
5 -11 4 -1.8342 0.0156
5 -11 5 -1.1492 0.0073
5 -11 6 -0.3190 -0.0015
5 -11 7 0.3945 0.0043
5 -11 8 0.7857 0.0263
5 -11 9 0.8251 0.0493
5 -11 10 0.6557 0.0509
5 -10 0 -1.2422 0.0384
5 -10 1 -1.1150 0.0231
5 -10 2 -1.2211 0.0003
5 -10 3 -1.5232 -0.0277
5 -10 4 -1.8321 -0.0545
5 -10 5 -1.9169 -0.0712
5 -10 6 -1.6258 -0.0707
5 -10 7 -0.9582 -0.0534
5 -10 8 -0.0627 -0.0278
5 -10 9 0.8256 -0.0066
5 -10 10 1.4745 0.0016
5 -10 11 1.7339 -0.0026
5 -10 12 1.5796 -0.0096
5 -9 0 -1.3488 -0.0118
5 -9 1 -0.5725 -0.0063
5 -9 2 0.4149 0.0072
5 -9 3 1.0954 0.0248
5 -9 4 1.1508 0.0352
5 -9 5 0.6283 0.0282
5 -9 6 -0.0969 0.0032
5 -9 7 -0.5416 -0.0295
5 -9 8 -0.3958 -0.0547
5 -9 9 0.2974 -0.0620
5 -9 10 1.1638 -0.0516
5 -9 11 1.7107 -0.0332
5 -9 12 1.6037 -0.0188
5 -9 13 0.8496 -0.0151
5 -9 14 -0.2174 -0.0219
5 -8 0 0.7093 -0.0577
5 -8 1 0.4983 -0.0596
5 -8 2 0.6324 -0.0510
5 -8 3 0.9972 -0.0357
5 -8 4 1.3613 -0.0178
5 -8 5 1.4662 0.0008
5 -8 6 1.1522 0.0208
5 -8 7 0.4569 0.0433
5 -8 8 -0.3794 0.0667
5 -8 9 -1.0219 0.0855
5 -8 10 -1.2138 0.0922
5 -8 11 -0.9181 0.0821
5 -8 12 -0.3415 0.0574
5 -8 13 0.1768 0.0275
5 -8 14 0.3503 0.0041
5 -8 15 0.0941 -0.0059
5 -8 16 -0.4453 -0.0043
5 -7 0 -2.6052 0.0116
5 -7 1 -2.6446 0.0103
5 -7 2 -2.7279 -0.0009
5 -7 3 -2.7015 -0.0170
5 -7 4 -2.4402 -0.0259
5 -7 5 -1.9337 -0.0163
5 -7 6 -1.2886 0.0139
5 -7 7 -0.6550 0.0540
5 -7 8 -0.1384 0.0854
5 -7 9 0.2337 0.0918
5 -7 10 0.4713 0.0693
5 -7 11 0.5483 0.0287
5 -7 12 0.3688 -0.0101
5 -7 13 -0.1832 -0.0289
5 -7 14 -1.1337 -0.0217
5 -7 15 -2.3269 0.0028
5 -7 16 -3.4319 0.0261
5 -7 17 -4.0692 0.0307
5 -6 0 -1.0109 0.0007
5 -6 1 -0.6702 0.0226
5 -6 2 -0.2650 0.0366
5 -6 3 0.0101 0.0358
5 -6 4 0.0770 0.0162
5 -6 5 0.0068 -0.0184
5 -6 6 -0.0394 -0.0566
5 -6 7 0.0745 -0.0838
5 -6 8 0.3598 -0.0895
5 -6 9 0.6827 -0.0742
5 -6 10 0.8407 -0.0483
5 -6 11 0.6867 -0.0263
5 -6 12 0.2272 -0.0167
5 -6 13 -0.3714 -0.0182
5 -6 14 -0.8711 -0.0214
5 -6 15 -1.0927 -0.0176
5 -6 16 -1.0070 -0.0066
5 -6 17 -0.7350 0.0018
5 -6 18 -0.4613 -0.0056
5 -5 0 -0.2176 -0.0466
5 -5 1 0.4535 -0.0365
5 -5 2 1.2980 -0.0062
5 -5 3 2.1845 0.0340
5 -5 4 2.9119 0.0670
5 -5 5 3.2940 0.0775
5 -5 6 3.2492 0.0610
5 -5 7 2.8435 0.0271
5 -5 8 2.2567 -0.0062
5 -5 9 1.6934 -0.0223
5 -5 10 1.2917 -0.0155
5 -5 11 1.0791 0.0065
5 -5 12 0.9906 0.0286
5 -5 13 0.9232 0.0382
5 -5 14 0.7872 0.0325
5 -5 15 0.5279 0.0188
5 -5 16 0.1225 0.0084
5 -5 17 -0.4227 0.0085
5 -5 18 -1.0613 0.0179
5 -5 19 -1.6912 0.0287
5 -4 0 -4.1575 0.0159
5 -4 1 -3.5875 0.0185
5 -4 2 -2.6224 0.0097
5 -4 3 -1.2039 -0.0069
5 -4 4 0.4863 -0.0208
5 -4 5 2.0520 -0.0225
5 -4 6 3.0677 -0.0105
5 -4 7 3.3053 0.0070
5 -4 8 2.8546 0.0180
5 -4 9 2.0532 0.0144
5 -4 10 1.2777 -0.0026
5 -4 11 0.7373 -0.0240
5 -4 12 0.4066 -0.0385
5 -4 13 0.1290 -0.0402
5 -4 14 -0.1970 -0.0306
5 -4 15 -0.4968 -0.0170
5 -4 16 -0.5543 -0.0072
5 -4 17 -0.1796 -0.0056
5 -4 18 0.6183 -0.0116
5 -4 19 1.5822 -0.0220
5 -4 20 2.3268 -0.0329
5 -3 0 -1.7238 0.0774
5 -3 1 -1.2831 0.0925
5 -3 2 -0.7526 0.0813
5 -3 3 -0.0937 0.0499
5 -3 4 0.7029 0.0113
5 -3 5 1.5391 -0.0194
5 -3 6 2.2127 -0.0318
5 -3 7 2.5089 -0.0248
5 -3 8 2.3168 -0.0069
5 -3 9 1.6873 0.0079
5 -3 10 0.7949 0.0083
5 -3 11 -0.1678 -0.0085
5 -3 12 -1.0817 -0.0345
5 -3 13 -1.9178 -0.0553
5 -3 14 -2.6768 -0.0576
5 -3 15 -3.3125 -0.0371
5 -3 16 -3.7108 -0.0000
5 -3 17 -3.7506 0.0397
5 -3 18 -3.4021 0.0685
5 -3 19 -2.7845 0.0796
5 -3 20 -2.1284 0.0750
5 -3 21 -1.6567 0.0627
5 -2 0 -3.5946 -0.0574
5 -2 1 -3.2283 -0.0734
5 -2 2 -2.6081 -0.0683
5 -2 3 -1.7757 -0.0443
5 -2 4 -0.7847 -0.0140
5 -2 5 0.2655 0.0074
5 -2 6 1.2165 0.0117
5 -2 7 1.8866 0.0022
5 -2 8 2.1504 -0.0090
5 -2 9 2.0131 -0.0089
5 -2 10 1.6232 0.0071
5 -2 11 1.2008 0.0332
5 -2 12 0.9172 0.0566
5 -2 13 0.7986 0.0655
5 -2 14 0.7190 0.0557
5 -2 15 0.4932 0.0318
5 -2 16 0.0152 0.0033
5 -2 17 -0.6458 -0.0210
5 -2 18 -1.2559 -0.0365
5 -2 19 -1.5339 -0.0431
5 -2 20 -1.3083 -0.0428
5 -2 21 -0.6215 -0.0373
5 -1 0 -3.5665 -0.0150
5 -1 1 -3.2674 -0.0152
5 -1 2 -2.5020 -0.0221
5 -1 3 -1.3759 -0.0311
5 -1 4 -0.0838 -0.0332
5 -1 5 1.1426 -0.0223
5 -1 6 2.0972 -0.0006
5 -1 7 2.6503 0.0230
5 -1 8 2.7707 0.0380
5 -1 9 2.5123 0.0392
5 -1 10 1.9781 0.0287
5 -1 11 1.2801 0.0132
5 -1 12 0.5156 -0.0015
5 -1 13 -0.2354 -0.0130
5 -1 14 -0.8986 -0.0222
5 -1 15 -1.3963 -0.0302
5 -1 16 -1.6535 -0.0364
5 -1 17 -1.6190 -0.0393
5 -1 18 -1.2901 -0.0384
5 -1 19 -0.7274 -0.0353
5 -1 20 -0.0491 -0.0325
5 -1 21 0.5954 -0.0302
5 -1 22 1.0648 -0.0251
5 0 0 -0.7397 0.1082
5 0 1 0.7828 0.0995
5 0 2 2.3339 0.0638
5 0 3 3.6384 0.0129
5 0 4 4.4764 -0.0334
5 0 5 4.7259 -0.0579
5 0 6 4.3975 -0.0545
5 0 7 3.6451 -0.0310
5 0 8 2.7334 -0.0038
5 0 9 1.9517 0.0124
5 0 10 1.5016 0.0128
5 0 11 1.4086 0.0041
5 0 12 1.5122 -0.0017
5 0 13 1.5477 0.0040
5 0 14 1.2801 0.0200
5 0 15 0.6203 0.0375
5 0 16 -0.3370 0.0461
5 0 17 -1.3690 0.0413
5 0 18 -2.2308 0.0264
5 0 19 -2.7516 0.0088
5 0 20 -2.8738 -0.0054
5 0 21 -2.6368 -0.0152
5 0 22 -2.1352 -0.0235
5 1 0 -3.0448 -0.0150
5 1 1 -1.3094 -0.0101
5 1 2 0.5048 -0.0037
5 1 3 2.2403 0.0034
5 1 4 3.7911 0.0087
5 1 5 5.0799 0.0108
5 1 6 6.0313 0.0091
5 1 7 6.5693 0.0031
5 1 8 6.6478 -0.0088
5 1 9 6.2882 -0.0279
5 1 10 5.5932 -0.0521
5 1 11 4.7202 -0.0738
5 1 12 3.8287 -0.0827
5 1 13 3.0331 -0.0712
5 1 14 2.3846 -0.0409
5 1 15 1.8850 -0.0044
5 1 16 1.5091 0.0207
5 1 17 1.2190 0.0219
5 1 18 0.9674 0.0002
5 1 19 0.7034 -0.0304
5 1 20 0.3945 -0.0511
5 1 21 0.0574 -0.0511
5 1 22 -0.2282 -0.0339
5 1 23 -0.3487 -0.0153
5 2 0 -6.1281 -0.1039
5 2 1 -4.0035 -0.0859
5 2 2 -1.9335 -0.0518
5 2 3 -0.1027 -0.0152
5 2 4 1.5031 0.0110
5 2 5 3.0106 0.0188
5 2 6 4.5064 0.0088
5 2 7 5.9181 -0.0114
5 2 8 7.0090 -0.0310
5 2 9 7.4899 -0.0416
5 2 10 7.1801 -0.0415
5 2 11 6.1193 -0.0348
5 2 12 4.5673 -0.0273
5 2 13 2.9005 -0.0211
5 2 14 1.4667 -0.0127
5 2 15 0.4747 0.0034
5 2 16 -0.0404 0.0293
5 2 17 -0.1835 0.0597
5 2 18 -0.1346 0.0829
5 2 19 -0.0866 0.0891
5 2 20 -0.1991 0.0772
5 2 21 -0.5623 0.0575
5 2 22 -1.1685 0.0456
5 2 23 -1.9022 0.0523
5 3 0 -5.7647 0.0725
5 3 1 -3.6062 0.0659
5 3 2 -1.2367 0.0572
5 3 3 0.8553 0.0492
5 3 4 2.3735 0.0433
5 3 5 3.2657 0.0383
5 3 6 3.6572 0.0310
5 3 7 3.7282 0.0191
5 3 8 3.6175 0.0035
5 3 9 3.3926 -0.0104
5 3 10 3.0744 -0.0157
5 3 11 2.6700 -0.0090
5 3 12 2.1806 0.0068
5 3 13 1.5880 0.0232
5 3 14 0.8523 0.0311
5 3 15 -0.0531 0.0273
5 3 16 -1.0808 0.0157
5 3 17 -2.0690 0.0050
5 3 18 -2.7684 0.0009
5 3 19 -2.9436 0.0018
5 3 20 -2.4996 -0.0011
5 3 21 -1.5575 -0.0165
5 3 22 -0.4241 -0.0462
5 3 23 0.5384 -0.0813
5 4 0 -1.3762 0.0484
5 4 1 -0.3028 0.0302
5 4 2 0.9855 -0.0004
5 4 3 2.2185 -0.0340
5 4 4 3.1887 -0.0578
5 4 5 3.8343 -0.0607
5 4 6 4.2282 -0.0402
5 4 7 4.4820 -0.0058
5 4 8 4.6323 0.0247
5 4 9 4.5918 0.0356
5 4 10 4.2014 0.0222
5 4 11 3.3529 -0.0054
5 4 12 2.0984 -0.0302
5 4 13 0.6729 -0.0401
5 4 14 -0.5934 -0.0363
5 4 15 -1.4204 -0.0324
5 4 16 -1.7010 -0.0427
5 4 17 -1.5303 -0.0699
5 4 18 -1.1327 -0.1002
5 4 19 -0.7373 -0.1124
5 4 20 -0.4726 -0.0928
5 4 21 -0.3371 -0.0476
5 4 22 -0.2462 -0.0012
5 4 23 -0.1162 0.0185
5 5 0 -0.5242 -0.0458
5 5 1 0.7142 -0.0308
5 5 2 2.1361 -0.0095
5 5 3 3.6322 0.0074
5 5 4 5.0413 0.0096
5 5 5 6.1906 -0.0055
5 5 6 6.9468 -0.0301
5 5 7 7.2419 -0.0491
5 5 8 7.0632 -0.0489
5 5 9 6.4262 -0.0260
5 5 10 5.3638 0.0094
5 5 11 3.9437 0.0387
5 5 12 2.2991 0.0451
5 5 13 0.6364 0.0229
5 5 14 -0.8026 -0.0197
5 5 15 -1.8163 -0.0652
5 5 16 -2.3156 -0.0967
5 5 17 -2.3485 -0.1047
5 5 18 -2.0613 -0.0890
5 5 19 -1.6183 -0.0555
5 5 20 -1.1311 -0.0118
5 5 21 -0.6368 0.0350
5 5 22 -0.1321 0.0769
5 6 0 -1.9519 0.0481
5 6 1 -0.4229 0.0489
5 6 2 1.1064 0.0474
5 6 3 2.5879 0.0453
5 6 4 3.9821 0.0442
5 6 5 5.1810 0.0439
5 6 6 6.0002 0.0427
5 6 7 6.2531 0.0398
5 6 8 5.8610 0.0362
5 6 9 4.9205 0.0342
5 6 10 3.6791 0.0344
5 6 11 2.4240 0.0335
5 6 12 1.3509 0.0256
5 6 13 0.4901 0.0068
5 6 14 -0.2643 -0.0207
5 6 15 -1.0434 -0.0478
5 6 16 -1.8803 -0.0632
5 6 17 -2.6526 -0.0602
5 6 18 -3.1290 -0.0402
5 6 19 -3.0926 -0.0111
5 6 20 -2.4697 0.0188
5 6 21 -1.3894 0.0469
5 6 22 -0.1410 0.0762
5 7 0 -4.2760 0.0088
5 7 1 -2.6625 0.0164
5 7 2 -0.7230 0.0080
5 7 3 1.3214 -0.0123
5 7 4 3.2197 -0.0317
5 7 5 4.7055 -0.0360
5 7 6 5.5390 -0.0201
5 7 7 5.5759 0.0072
5 7 8 4.8364 0.0278
5 7 9 3.5343 0.0258
5 7 10 2.0355 -0.0010
5 7 11 0.7468 -0.0385
5 7 12 -0.0245 -0.0643
5 7 13 -0.1800 -0.0620
5 7 14 0.1449 -0.0312
5 7 15 0.6552 0.0126
5 7 16 1.0341 0.0474
5 7 17 1.0803 0.0582
5 7 18 0.7773 0.0440
5 7 19 0.2689 0.0159
5 7 20 -0.2372 -0.0117
5 7 21 -0.5816 -0.0306
5 7 22 -0.7192 -0.0405
5 8 0 -4.6662 -0.0309
5 8 1 -4.9554 -0.0147
5 8 2 -4.7795 0.0016
5 8 3 -3.9647 0.0127
5 8 4 -2.6050 0.0114
5 8 5 -1.0106 -0.0071
5 8 6 0.4548 -0.0399
5 8 7 1.5386 -0.0758
5 8 8 2.1705 -0.1000
5 8 9 2.4199 -0.1020
5 8 10 2.3935 -0.0813
5 8 11 2.1547 -0.0479
5 8 12 1.7134 -0.0155
5 8 13 1.0753 0.0062
5 8 14 0.3004 0.0162
5 8 15 -0.4819 0.0208
5 8 16 -1.1104 0.0271
5 8 17 -1.4560 0.0360
5 8 18 -1.4705 0.0406
5 8 19 -1.1936 0.0299
5 8 20 -0.7260 -0.0038
5 8 21 -0.1911 -0.0585
5 9 0 -4.1736 0.0576
5 9 1 -4.5653 0.0557
5 9 2 -5.1331 0.0429
5 9 3 -5.3433 0.0331
5 9 4 -4.8330 0.0350
5 9 5 -3.6332 0.0455
5 9 6 -2.1426 0.0520
5 9 7 -0.8944 0.0434
5 9 8 -0.2745 0.0199
5 9 9 -0.3587 -0.0071
5 9 10 -0.9406 -0.0229
5 9 11 -1.6969 -0.0214
5 9 12 -2.3681 -0.0082
5 9 13 -2.8475 0.0040
5 9 14 -3.1504 0.0063
5 9 15 -3.3174 0.0001
5 9 16 -3.3346 -0.0055
5 9 17 -3.1259 -0.0042
5 9 18 -2.6142 -0.0004
5 9 19 -1.8006 -0.0089
5 9 20 -0.8026 -0.0442
5 10 0 -2.8387 -0.0242
5 10 1 -2.5132 -0.0407
5 10 2 -2.2378 -0.0509
5 10 3 -1.8458 -0.0527
5 10 4 -1.1438 -0.0403
5 10 5 -0.1344 -0.0119
5 10 6 0.9098 0.0245
5 10 7 1.5847 0.0522
5 10 8 1.6134 0.0565
5 10 9 1.0452 0.0355
5 10 10 0.2530 0.0032
5 10 11 -0.2785 -0.0189
5 10 12 -0.2412 -0.0168
5 10 13 0.3144 0.0056
5 10 14 1.0139 0.0282
5 10 15 1.3881 0.0286
5 10 16 1.1511 -0.0033
5 10 17 0.3647 -0.0582
5 10 18 -0.6014 -0.1151
5 10 19 -1.2781 -0.1554
5 11 0 0.0639 -0.0302
5 11 1 0.4124 -0.0350
5 11 2 0.6514 -0.0409
5 11 3 0.7857 -0.0342
5 11 4 0.8223 -0.0092
5 11 5 0.7592 0.0273
5 11 6 0.5951 0.0581
5 11 7 0.3528 0.0662
5 11 8 0.0948 0.0467
5 11 9 -0.0932 0.0111
5 11 10 -0.1506 -0.0180
5 11 11 -0.0913 -0.0217
5 11 12 -0.0152 0.0019
5 11 13 -0.0606 0.0338
5 11 14 -0.3165 0.0449
5 11 15 -0.7504 0.0138
5 11 16 -1.1994 -0.0580
5 11 17 -1.4430 -0.1448
5 11 18 -1.3188 -0.2106
5 12 0 -3.0225 0.1076
5 12 1 -3.3360 0.0797
5 12 2 -2.9069 0.0280
5 12 3 -1.7326 -0.0079
5 12 4 -0.1523 -0.0011
5 12 5 1.2844 0.0427
5 12 6 2.0542 0.0897
5 12 7 1.8840 0.1016
5 12 8 0.8580 0.0636
5 12 9 -0.6289 -0.0043
5 12 10 -2.0378 -0.0602
5 12 11 -2.8898 -0.0684
5 12 12 -2.9246 -0.0246
5 12 13 -2.1600 0.0393
5 12 14 -0.8490 0.0741
5 12 15 0.6347 0.0433
5 12 16 1.9300 -0.0544
5 13 0 -2.1089 -0.0022
5 13 1 -2.1435 0.0217
5 13 2 -2.2728 0.0251
5 13 3 -2.3299 0.0089
5 13 4 -2.1268 -0.0056
5 13 5 -1.5832 0.0029
5 13 6 -0.7834 0.0355
5 13 7 0.0666 0.0695
5 13 8 0.7496 0.0754
5 13 9 1.1449 0.0412
5 13 10 1.2711 -0.0155
5 13 11 1.2485 -0.0574
5 13 12 1.2116 -0.0551
5 13 13 1.2290 -0.0112
5 13 14 1.2752 0.0371
5 14 0 -0.1497 0.0569
5 14 1 0.0210 0.0597
5 14 2 -0.0825 0.0248
5 14 3 -0.5345 -0.0395
5 14 4 -1.3358 -0.1026
5 14 5 -2.4036 -0.1308
5 14 6 -3.5501 -0.1103
5 14 7 -4.4864 -0.0577
5 14 8 -4.8909 -0.0086
5 14 9 -4.5412 0.0076
5 14 10 -3.4491 -0.0118
5 14 11 -1.9103 -0.0417
5 15 0 1.3617 0.0197
5 15 1 2.2886 -0.0046
5 15 2 3.8504 -0.0161
5 15 3 5.5268 0.0101
5 15 4 6.5762 0.0749
5 15 5 6.3689 0.1525
5 15 6 4.6895 0.2028
6 -12 0 -0.2254 -0.0608
6 -12 1 -0.1437 -0.0474
6 -12 2 -0.4547 -0.0330
6 -12 3 -0.9976 -0.0229
6 -12 4 -1.5318 -0.0212
6 -11 0 -1.5770 -0.0105
6 -11 1 -0.9336 -0.0349
6 -11 2 -0.2236 -0.0608
6 -11 3 0.3581 -0.0780
6 -11 4 0.6467 -0.0815
6 -11 5 0.6086 -0.0715
6 -11 6 0.3737 -0.0524
6 -11 7 0.1695 -0.0304
6 -11 8 0.1873 -0.0133
6 -10 0 -3.5476 0.0344
6 -10 1 -3.0560 0.0329
6 -10 2 -2.5868 0.0383
6 -10 3 -2.1096 0.0441
6 -10 4 -1.5258 0.0456
6 -10 5 -0.7946 0.0445
6 -10 6 0.0017 0.0482
6 -10 7 0.6977 0.0631
6 -10 8 1.1524 0.0868
6 -10 9 1.3392 0.1051
6 -10 10 1.3496 0.0973
6 -9 0 -0.1867 -0.0277
6 -9 1 0.3788 -0.0355
6 -9 2 0.6806 -0.0431
6 -9 3 0.5423 -0.0474
6 -9 4 0.0232 -0.0444
6 -9 5 -0.6260 -0.0314
6 -9 6 -1.0889 -0.0092
6 -9 7 -1.1224 0.0164
6 -9 8 -0.6456 0.0359
6 -9 9 0.2452 0.0406
6 -9 10 1.3228 0.0273
6 -9 11 2.3070 0.0011
6 -9 12 2.9462 -0.0267
6 -9 13 3.0860 -0.0439
6 -8 0 -0.3560 -0.0274
6 -8 1 0.0272 -0.0213
6 -8 2 0.9143 -0.0135
6 -8 3 1.7863 -0.0069
6 -8 4 2.1442 -0.0059
6 -8 5 1.7789 -0.0124
6 -8 6 0.8787 -0.0228
6 -8 7 -0.0872 -0.0290
6 -8 8 -0.6418 -0.0228
6 -8 9 -0.5694 -0.0017
6 -8 10 -0.0251 0.0290
6 -8 11 0.5727 0.0589
6 -8 12 0.7957 0.0789
6 -8 13 0.4490 0.0855
6 -8 14 -0.3362 0.0810
6 -7 0 0.2295 0.0577
6 -7 1 -0.1499 0.0459
6 -7 2 -0.1529 0.0328
6 -7 3 0.1980 0.0214
6 -7 4 0.7169 0.0124
6 -7 5 1.1238 0.0062
6 -7 6 1.1873 0.0046
6 -7 7 0.8592 0.0100
6 -7 8 0.3156 0.0228
6 -7 9 -0.1373 0.0382
6 -7 10 -0.2447 0.0473
6 -7 11 0.0355 0.0414
6 -7 12 0.4958 0.0190
6 -7 13 0.7945 -0.0119
6 -7 14 0.6550 -0.0362
6 -7 15 0.0276 -0.0405
6 -7 16 -0.8827 -0.0212
6 -6 0 -2.8361 0.0262
6 -6 1 -2.5935 0.0222
6 -6 2 -2.4127 0.0119
6 -6 3 -2.1864 -0.0013
6 -6 4 -1.7910 -0.0105
6 -6 5 -1.2099 -0.0097
6 -6 6 -0.5609 0.0027
6 -6 7 -0.0105 0.0214
6 -6 8 0.3501 0.0368
6 -6 9 0.5635 0.0400
6 -6 10 0.7444 0.0281
6 -6 11 0.9421 0.0056
6 -6 12 1.0395 -0.0174
6 -6 13 0.7841 -0.0300
6 -6 14 -0.0442 -0.0263
6 -6 15 -1.4349 -0.0082
6 -6 16 -3.0592 0.0156
6 -6 17 -4.3770 0.0330
6 -5 0 -0.8026 -0.0456
6 -5 1 -0.6398 -0.0196
6 -5 2 -0.3278 -0.0020
6 -5 3 0.0067 -0.0006
6 -5 4 0.3011 -0.0167
6 -5 5 0.5632 -0.0438
6 -5 6 0.8225 -0.0693
6 -5 7 1.0685 -0.0805
6 -5 8 1.2241 -0.0712
6 -5 9 1.1783 -0.0455
6 -5 10 0.8575 -0.0161
6 -5 11 0.2882 0.0034
6 -5 12 -0.3948 0.0062
6 -5 13 -1.0048 -0.0028
6 -5 14 -1.3925 -0.0104
6 -5 15 -1.5155 -0.0034
6 -5 16 -1.4462 0.0218
6 -5 17 -1.3173 0.0561
6 -5 18 -1.2404 0.0826
6 -4 0 -0.6296 0.0192
6 -4 1 -0.3848 0.0178
6 -4 2 -0.0272 0.0353
6 -4 3 0.4341 0.0683
6 -4 4 0.9388 0.1020
6 -4 5 1.4008 0.1187
6 -4 6 1.7473 0.1079
6 -4 7 1.9425 0.0731
6 -4 8 1.9841 0.0302
6 -4 9 1.8852 -0.0020
6 -4 10 1.6637 -0.0128
6 -4 11 1.3520 -0.0048
6 -4 12 1.0122 0.0090
6 -4 13 0.7310 0.0146
6 -4 14 0.5808 0.0059
6 -4 15 0.5647 -0.0118
6 -4 16 0.5893 -0.0270
6 -4 17 0.4988 -0.0297
6 -4 18 0.1669 -0.0183
6 -4 19 -0.4067 0.0002
6 -3 0 -3.5858 0.0306
6 -3 1 -3.3516 0.0157
6 -3 2 -2.7422 -0.0022
6 -3 3 -1.6666 -0.0177
6 -3 4 -0.2182 -0.0251
6 -3 5 1.3043 -0.0214
6 -3 6 2.5199 -0.0095
6 -3 7 3.1559 0.0034
6 -3 8 3.1784 0.0098
6 -3 9 2.7739 0.0064
6 -3 10 2.2022 -0.0042
6 -3 11 1.6295 -0.0158
6 -3 12 1.0645 -0.0223
6 -3 13 0.4347 -0.0213
6 -3 14 -0.2649 -0.0142
6 -3 15 -0.8792 -0.0041
6 -3 16 -1.1418 0.0066
6 -3 17 -0.8444 0.0168
6 -3 18 -0.0068 0.0252
6 -3 19 1.0791 0.0295
6 -3 20 1.9778 0.0263
6 -2 0 -1.5100 -0.0312
6 -2 1 -1.3667 -0.0218
6 -2 2 -1.2069 -0.0302
6 -2 3 -0.9639 -0.0535
6 -2 4 -0.5572 -0.0798
6 -2 5 0.0010 -0.0932
6 -2 6 0.5710 -0.0827
6 -2 7 0.9581 -0.0484
6 -2 8 1.0372 -0.0022
6 -2 9 0.8340 0.0377
6 -2 10 0.4966 0.0552
6 -2 11 0.1779 0.0448
6 -2 12 -0.0794 0.0137
6 -2 13 -0.3638 -0.0219
6 -2 14 -0.8029 -0.0453
6 -2 15 -1.4275 -0.0473
6 -2 16 -2.1017 -0.0298
6 -2 17 -2.5808 -0.0032
6 -2 18 -2.6638 0.0193
6 -2 19 -2.3342 0.0286
6 -2 20 -1.7846 0.0226
6 -2 21 -1.3019 0.0058
6 -1 0 -3.5898 0.0262
6 -1 1 -3.4991 0.0110
6 -1 2 -3.0225 0.0093
6 -1 3 -2.2659 0.0240
6 -1 4 -1.3302 0.0469
6 -1 5 -0.3115 0.0642
6 -1 6 0.6787 0.0656
6 -1 7 1.5108 0.0500
6 -1 8 2.0726 0.0260
6 -1 9 2.3244 0.0056
6 -1 10 2.3286 -0.0030
6 -1 11 2.2190 0.0003
6 -1 12 2.1187 0.0092
6 -1 13 2.0596 0.0154
6 -1 14 1.9621 0.0137
6 -1 15 1.6978 0.0036
6 -1 16 1.1988 -0.0118
6 -1 17 0.5389 -0.0291
6 -1 18 -0.0737 -0.0456
6 -1 19 -0.3962 -0.0594
6 -1 20 -0.2859 -0.0687
6 -1 21 0.2126 -0.0717
6 0 0 -3.7570 0.0367
6 0 1 -3.9370 0.0326
6 0 2 -3.5285 0.0267
6 0 3 -2.6209 0.0215
6 0 4 -1.3752 0.0196
6 0 5 0.0223 0.0216
6 0 6 1.3932 0.0250
6 0 7 2.5792 0.0263
6 0 8 3.4469 0.0231
6 0 9 3.8972 0.0159
6 0 10 3.8835 0.0066
6 0 11 3.4293 -0.0037
6 0 12 2.6304 -0.0152
6 0 13 1.6347 -0.0282
6 0 14 0.6041 -0.0402
6 0 15 -0.3239 -0.0456
6 0 16 -1.0584 -0.0380
6 0 17 -1.5545 -0.0165
6 0 18 -1.7986 0.0118
6 0 19 -1.7956 0.0335
6 0 20 -1.5698 0.0372
6 0 21 -1.1774 0.0212
6 0 22 -0.7151 -0.0032
6 1 0 -0.6938 -0.0098
6 1 1 0.1928 0.0018
6 1 2 1.1715 -0.0094
6 1 3 2.0367 -0.0392
6 1 4 2.6207 -0.0731
6 1 5 2.8101 -0.0946
6 1 6 2.5692 -0.0943
6 1 7 1.9688 -0.0742
6 1 8 1.1954 -0.0453
6 1 9 0.5106 -0.0193
6 1 10 0.1571 -0.0023
6 1 11 0.2493 0.0073
6 1 12 0.7066 0.0144
6 1 13 1.2757 0.0217
6 1 14 1.6378 0.0269
6 1 15 1.5486 0.0251
6 1 16 0.9409 0.0139
6 1 17 -0.0588 -0.0043
6 1 18 -1.1942 -0.0235
6 1 19 -2.1836 -0.0398
6 1 20 -2.8100 -0.0555
6 1 21 -2.9698 -0.0778
6 1 22 -2.6781 -0.1130
6 2 0 -3.4653 -0.0170
6 2 1 -2.5411 -0.0045
6 2 2 -1.3203 0.0102
6 2 3 -0.0042 0.0227
6 2 4 1.2619 0.0301
6 2 5 2.4112 0.0324
6 2 6 3.4246 0.0312
6 2 7 4.2806 0.0265
6 2 8 4.9233 0.0160
6 2 9 5.2678 -0.0026
6 2 10 5.2353 -0.0272
6 2 11 4.7949 -0.0486
6 2 12 3.9928 -0.0537
6 2 13 2.9567 -0.0334
6 2 14 1.8734 0.0089
6 2 15 0.9429 0.0566
6 2 16 0.3151 0.0882
6 2 17 0.0317 0.0900
6 2 18 0.0018 0.0665
6 2 19 0.0372 0.0389
6 2 20 -0.0561 0.0324
6 2 21 -0.3700 0.0592
6 2 22 -0.8321 0.1097
6 3 0 -6.8631 -0.0333
6 3 1 -5.8458 -0.0267
6 3 2 -4.6733 -0.0022
6 3 3 -3.5413 0.0246
6 3 4 -2.4527 0.0366
6 3 5 -1.2611 0.0255
6 3 6 0.1761 -0.0034
6 3 7 1.8351 -0.0341
6 3 8 3.4642 -0.0500
6 3 9 4.6720 -0.0436
6 3 10 5.1163 -0.0208
6 3 11 4.6832 0.0031
6 3 12 3.5538 0.0144
6 3 13 2.1244 0.0102
6 3 14 0.8324 0.0001
6 3 15 -0.0174 -0.0012
6 3 16 -0.3424 0.0140
6 3 17 -0.2650 0.0400
6 3 18 -0.0197 0.0593
6 3 19 0.1572 0.0555
6 3 20 0.1089 0.0253
6 3 21 -0.2066 -0.0164
6 3 22 -0.7197 -0.0446
6 4 0 -4.9702 0.0334
6 4 1 -4.0680 0.0295
6 4 2 -2.8024 0.0235
6 4 3 -1.4830 0.0172
6 4 4 -0.3482 0.0112
6 4 5 0.4906 0.0052
6 4 6 1.0280 -0.0014
6 4 7 1.3038 -0.0069
6 4 8 1.3538 -0.0076
6 4 9 1.2046 0.0005
6 4 10 0.8969 0.0179
6 4 11 0.5031 0.0388
6 4 12 0.1075 0.0525
6 4 13 -0.2400 0.0492
6 4 14 -0.5586 0.0270
6 4 15 -0.9226 -0.0048
6 4 16 -1.3960 -0.0300
6 4 17 -1.9584 -0.0353
6 4 18 -2.4766 -0.0203
6 4 19 -2.7554 -0.0000
6 4 20 -2.6421 0.0026
6 4 21 -2.1231 -0.0290
6 4 22 -1.3485 -0.0936
6 5 0 -2.6111 -0.0100
6 5 1 -2.2698 -0.0203
6 5 2 -1.5962 -0.0381
6 5 3 -0.7673 -0.0576
6 5 4 0.0423 -0.0692
6 5 5 0.7474 -0.0646
6 5 6 1.3752 -0.0429
6 5 7 2.0059 -0.0127
6 5 8 2.6715 0.0117
6 5 9 3.2862 0.0189
6 5 10 3.6604 0.0082
6 5 11 3.5991 -0.0094
6 5 12 3.0267 -0.0192
6 5 13 2.0595 -0.0133
6 5 14 0.9769 0.0027
6 5 15 0.1029 0.0134
6 5 16 -0.3407 0.0056
6 5 17 -0.3281 -0.0191
6 5 18 -0.0244 -0.0423
6 5 19 0.3099 -0.0391
6 5 20 0.4512 0.0039
6 5 21 0.3105 0.0767
6 5 22 -0.0452 0.1484
6 6 0 -1.7818 0.0194
6 6 1 -1.2075 0.0280
6 6 2 -0.5556 0.0430
6 6 3 0.1811 0.0568
6 6 4 1.0113 0.0611
6 6 5 1.8986 0.0523
6 6 6 2.7514 0.0345
6 6 7 3.4451 0.0172
6 6 8 3.8580 0.0093
6 6 9 3.9058 0.0138
6 6 10 3.5654 0.0254
6 6 11 2.8881 0.0345
6 6 12 1.9976 0.0331
6 6 13 1.0707 0.0201
6 6 14 0.2956 0.0015
6 6 15 -0.1818 -0.0139
6 6 16 -0.3028 -0.0195
6 6 17 -0.1112 -0.0131
6 6 18 0.2715 0.0042
6 6 19 0.6995 0.0310
6 6 20 1.0560 0.0672
6 6 21 1.2833 0.1110
6 7 0 -2.9668 0.0346
6 7 1 -2.0536 0.0458
6 7 2 -1.1273 0.0412
6 7 3 -0.1724 0.0247
6 7 4 0.8813 0.0051
6 7 5 2.0234 -0.0101
6 7 6 3.0953 -0.0181
6 7 7 3.8410 -0.0213
6 7 8 4.0442 -0.0240
6 7 9 3.6583 -0.0299
6 7 10 2.8424 -0.0405
6 7 11 1.8798 -0.0552
6 7 12 1.0292 -0.0717
6 7 13 0.4036 -0.0855
6 7 14 -0.0516 -0.0905
6 7 15 -0.4743 -0.0811
6 7 16 -0.9548 -0.0565
6 7 17 -1.4459 -0.0229
6 7 18 -1.7728 0.0073
6 7 19 -1.7349 0.0217
6 7 20 -1.2374 0.0164
6 7 21 -0.3700 -0.0003
6 8 0 -3.6232 -0.0248
6 8 1 -2.6565 -0.0160
6 8 2 -1.4331 -0.0123
6 8 3 -0.0497 -0.0128
6 8 4 1.3984 -0.0106
6 8 5 2.7612 0.0014
6 8 6 3.8208 0.0233
6 8 7 4.3545 0.0449
6 8 8 4.2486 0.0501
6 8 9 3.5918 0.0281
6 8 10 2.6790 -0.0178
6 8 11 1.9002 -0.0685
6 8 12 1.5651 -0.0987
6 8 13 1.7529 -0.0911
6 8 14 2.2735 -0.0476
6 8 15 2.7661 0.0108
6 8 16 2.8832 0.0546
6 8 17 2.4646 0.0607
6 8 18 1.6088 0.0232
6 8 19 0.6105 -0.0464
6 8 20 -0.1942 -0.1270
6 9 0 -1.9543 0.0103
6 9 1 -2.6493 -0.0056
6 9 2 -3.5035 -0.0160
6 9 3 -4.0776 -0.0161
6 9 4 -4.0440 -0.0067
6 9 5 -3.3475 0.0060
6 9 6 -2.2053 0.0145
6 9 7 -0.9686 0.0138
6 9 8 0.0572 0.0046
6 9 9 0.7307 -0.0076
6 9 10 1.0798 -0.0158
6 9 11 1.2178 -0.0155
6 9 12 1.2387 -0.0072
6 9 13 1.1592 0.0039
6 9 14 0.9324 0.0100
6 9 15 0.5114 0.0040
6 9 16 -0.0877 -0.0176
6 9 17 -0.7616 -0.0543
6 9 18 -1.3490 -0.1017
6 9 19 -1.6943 -0.1533
6 10 0 -2.7869 0.0729
6 10 1 -3.0369 0.0748
6 10 2 -3.6584 0.0466
6 10 3 -4.1456 0.0083
6 10 4 -4.0026 -0.0163
6 10 5 -3.0646 -0.0162
6 10 6 -1.6069 0.0016
6 10 7 -0.1938 0.0197
6 10 8 0.6266 0.0241
6 10 9 0.5939 0.0145
6 10 10 -0.1702 0.0023
6 10 11 -1.2728 -0.0001
6 10 12 -2.2731 0.0099
6 10 13 -2.8819 0.0221
6 10 14 -3.0395 0.0206
6 10 15 -2.8613 -0.0053
6 10 16 -2.5172 -0.0545
6 10 17 -2.1276 -0.1153
6 10 18 -1.7313 -0.1737
6 11 0 -2.7316 -0.0133
6 11 1 -2.9194 -0.0330
6 11 2 -3.3978 -0.0429
6 11 3 -3.9242 -0.0437
6 11 4 -4.0668 -0.0332
6 11 5 -3.5205 -0.0105
6 11 6 -2.3431 0.0181
6 11 7 -0.9492 0.0384
6 11 8 0.1314 0.0370
6 11 9 0.5685 0.0126
6 11 10 0.4135 -0.0201
6 11 11 0.0363 -0.0379
6 11 12 -0.1305 -0.0265
6 11 13 0.1310 0.0067
6 11 14 0.6988 0.0325
6 11 15 1.2078 0.0164
6 11 16 1.2923 -0.0587
6 11 17 0.8157 -0.1793
6 12 0 1.5344 -0.0298
6 12 1 1.3217 -0.0511
6 12 2 0.7391 -0.0734
6 12 3 -0.1015 -0.0842
6 12 4 -0.9969 -0.0734
6 12 5 -1.7525 -0.0412
6 12 6 -2.2598 -0.0005
6 12 7 -2.5099 0.0296
6 12 8 -2.5481 0.0352
6 12 9 -2.4181 0.0189
6 12 10 -2.1443 0.0004
6 12 11 -1.7606 0.0042
6 12 12 -1.3502 0.0411
6 12 13 -1.0460 0.0950
6 12 14 -0.9748 0.1268
6 12 15 -1.1731 0.0954
6 12 16 -1.5386 -0.0157
6 13 0 -3.4837 0.0980
6 13 1 -4.1434 0.0870
6 13 2 -3.8294 0.0381
6 13 3 -2.4596 -0.0103
6 13 4 -0.3707 -0.0224
6 13 5 1.7894 0.0089
6 13 6 3.3140 0.0560
6 13 7 3.7204 0.0761
6 13 8 2.9368 0.0411
6 13 9 1.3158 -0.0402
6 13 10 -0.5219 -0.1248
6 13 11 -1.9374 -0.1610
6 13 12 -2.5073 -0.1215
6 13 13 -2.1492 -0.0232
6 14 0 -2.7742 0.0347
6 14 1 -2.8949 0.0627
6 14 2 -3.2408 0.0763
6 14 3 -3.5661 0.0658
6 14 4 -3.5450 0.0449
6 14 5 -2.9578 0.0358
6 14 6 -1.8270 0.0467
6 14 7 -0.4247 0.0614
6 14 8 0.8516 0.0504
6 14 9 1.6668 -0.0045
6 14 10 1.8967 -0.0915
7 -11 0 -0.9926 -0.0456
7 -11 1 -0.7905 -0.0546
7 -11 2 -0.6612 -0.0600
7 -11 3 -0.6667 -0.0577
7 -11 4 -0.8359 -0.0466
7 -11 5 -1.1308 -0.0281
7 -10 0 -0.4480 0.0684
7 -10 1 -0.3899 0.0592
7 -10 2 -0.0451 0.0389
7 -10 3 0.4913 0.0174
7 -10 4 0.9711 0.0034
7 -10 5 1.1392 0.0018
7 -10 6 0.8878 0.0138
7 -10 7 0.3223 0.0369
7 -10 8 -0.3038 0.0649
7 -9 0 -3.0045 0.0500
7 -9 1 -2.3293 0.0584
7 -9 2 -1.5643 0.0574
7 -9 3 -0.8301 0.0475
7 -9 4 -0.1554 0.0309
7 -9 5 0.4523 0.0128
7 -9 6 0.9503 0.0009
7 -9 7 1.2708 0.0027
7 -9 8 1.3828 0.0189
7 -9 9 1.3451 0.0396
7 -9 10 1.2902 0.0452
7 -9 11 1.3392 0.0163
7 -8 0 -0.9515 -0.0461
7 -8 1 0.2259 -0.0439
7 -8 2 1.2616 -0.0349
7 -8 3 1.7712 -0.0178
7 -8 4 1.6180 0.0069
7 -8 5 0.9504 0.0350
7 -8 6 0.1093 0.0593
7 -8 7 -0.5268 0.0721
7 -8 8 -0.6825 0.0685
7 -8 9 -0.2609 0.0494
7 -8 10 0.6491 0.0207
7 -8 11 1.8121 -0.0095
7 -8 12 2.9102 -0.0342
7 -8 13 3.6242 -0.0506
7 -7 0 -0.7928 -0.0113
7 -7 1 -0.8197 -0.0056
7 -7 2 -0.1368 -0.0005
7 -7 3 0.8670 0.0004
7 -7 4 1.6528 -0.0048
7 -7 5 1.8207 -0.0148
7 -7 6 1.3133 -0.0249
7 -7 7 0.4202 -0.0292
7 -7 8 -0.4111 -0.0235
7 -7 9 -0.8389 -0.0082
7 -7 10 -0.8053 0.0118
7 -7 11 -0.5315 0.0301
7 -7 12 -0.3495 0.0426
7 -7 13 -0.4871 0.0495
7 -7 14 -0.9405 0.0539
7 -7 15 -1.5028 0.0581
7 -6 0 -1.1894 0.0709
7 -6 1 -1.7595 0.0614
7 -6 2 -1.9524 0.0420
7 -6 3 -1.6952 0.0178
7 -6 4 -1.0801 -0.0079
7 -6 5 -0.3466 -0.0323
7 -6 6 0.2346 -0.0513
7 -6 7 0.5114 -0.0596
7 -6 8 0.5330 -0.0540
7 -6 9 0.5060 -0.0370
7 -6 10 0.6440 -0.0185
7 -6 11 1.0100 -0.0110
7 -6 12 1.4569 -0.0224
7 -6 13 1.7110 -0.0493
7 -6 14 1.5449 -0.0771
7 -6 15 0.9274 -0.0878
7 -6 16 0.0535 -0.0704
7 -5 0 -1.8270 0.0320
7 -5 1 -1.6383 0.0221
7 -5 2 -1.5976 0.0115
7 -5 3 -1.5991 0.0038
7 -5 4 -1.4587 0.0003
7 -5 5 -1.0794 0.0002
7 -5 6 -0.5339 0.0014
7 -5 7 -0.0066 0.0028
7 -5 8 0.3543 0.0048
7 -5 9 0.5501 0.0085
7 -5 10 0.7141 0.0143
7 -5 11 0.9690 0.0201
7 -5 12 1.2717 0.0226
7 -5 13 1.3774 0.0191
7 -5 14 0.9766 0.0104
7 -5 15 -0.0736 0.0018
7 -5 16 -1.5831 -0.0003
7 -5 17 -3.0584 0.0080
7 -4 0 0.5353 -0.0266
7 -4 1 0.4335 -0.0227
7 -4 2 0.3539 -0.0180
7 -4 3 0.2617 -0.0154
7 -4 4 0.2078 -0.0161
7 -4 5 0.2865 -0.0183
7 -4 6 0.5439 -0.0179
7 -4 7 0.9063 -0.0106
7 -4 8 1.1882 0.0052
7 -4 9 1.1864 0.0258
7 -4 10 0.8042 0.0433
7 -4 11 0.1256 0.0489
7 -4 12 -0.6127 0.0387
7 -4 13 -1.1381 0.0168
7 -4 14 -1.2797 -0.0050
7 -4 15 -1.0444 -0.0129
7 -4 16 -0.5930 0.0011
7 -4 17 -0.1389 0.0343
7 -4 18 0.1633 0.0735
7 -3 0 0.5994 0.0249
7 -3 1 0.4091 0.0128
7 -3 2 0.3088 0.0084
7 -3 3 0.3127 0.0181
7 -3 4 0.4192 0.0370
7 -3 5 0.6260 0.0517
7 -3 6 0.9347 0.0493
7 -3 7 1.3314 0.0264
7 -3 8 1.7541 -0.0080
7 -3 9 2.0801 -0.0381
7 -3 10 2.1612 -0.0507
7 -3 11 1.9014 -0.0436
7 -3 12 1.3326 -0.0256
7 -3 13 0.6298 -0.0109
7 -3 14 0.0401 -0.0093
7 -3 15 -0.2443 -0.0202
7 -3 16 -0.1931 -0.0337
7 -3 17 0.0458 -0.0373
7 -3 18 0.2399 -0.0245
7 -3 19 0.2177 0.0015
7 -2 0 -2.8443 0.0207
7 -2 1 -3.1124 0.0038
7 -2 2 -3.0292 -0.0153
7 -2 3 -2.4923 -0.0303
7 -2 4 -1.5387 -0.0365
7 -2 5 -0.3706 -0.0333
7 -2 6 0.7261 -0.0240
7 -2 7 1.5242 -0.0135
7 -2 8 1.9576 -0.0049
7 -2 9 2.1128 0.0017
7 -2 10 2.1188 0.0087
7 -2 11 2.0232 0.0174
7 -2 12 1.7550 0.0259
7 -2 13 1.2083 0.0300
7 -2 14 0.3838 0.0265
7 -2 15 -0.5278 0.0169
7 -2 16 -1.1998 0.0077
7 -2 17 -1.3442 0.0070
7 -2 18 -0.8942 0.0183
7 -2 19 -0.0689 0.0375
7 -2 20 0.7340 0.0541
7 -1 0 -1.0592 -0.0413
7 -1 1 -1.1506 -0.0411
7 -1 2 -1.3434 -0.0443
7 -1 3 -1.5435 -0.0517
7 -1 4 -1.5942 -0.0583
7 -1 5 -1.4083 -0.0561
7 -1 6 -1.0429 -0.0395
7 -1 7 -0.6561 -0.0096
7 -1 8 -0.3791 0.0251
7 -1 9 -0.2089 0.0523
7 -1 10 -0.0139 0.0617
7 -1 11 0.3433 0.0497
7 -1 12 0.8602 0.0213
7 -1 13 1.3437 -0.0128
7 -1 14 1.5085 -0.0416
7 -1 15 1.1657 -0.0579
7 -1 16 0.3693 -0.0610
7 -1 17 -0.5880 -0.0554
7 -1 18 -1.3347 -0.0479
7 -1 19 -1.6328 -0.0452
7 -1 20 -1.4987 -0.0512
7 0 0 -3.4843 0.0428
7 0 1 -3.5263 0.0300
7 0 2 -3.0205 0.0238
7 0 3 -2.1543 0.0300
7 0 4 -1.1354 0.0454
7 0 5 -0.1258 0.0598
7 0 6 0.7740 0.0625
7 0 7 1.5075 0.0490
7 0 8 2.0463 0.0232
7 0 9 2.3893 -0.0053
7 0 10 2.5673 -0.0266
7 0 11 2.6267 -0.0349
7 0 12 2.5925 -0.0294
7 0 13 2.4319 -0.0135
7 0 14 2.0603 0.0083
7 0 15 1.3992 0.0316
7 0 16 0.4590 0.0523
7 0 17 -0.6117 0.0674
7 0 18 -1.5576 0.0753
7 0 19 -2.1234 0.0773
7 0 20 -2.1777 0.0774
7 0 21 -1.7804 0.0803
7 1 0 -4.0217 0.0208
7 1 1 -4.7061 0.0264
7 1 2 -4.7438 0.0309
7 1 3 -4.2449 0.0334
7 1 4 -3.3818 0.0319
7 1 5 -2.3106 0.0247
7 1 6 -1.1396 0.0120
7 1 7 0.0480 -0.0027
7 1 8 1.1543 -0.0130
7 1 9 2.0535 -0.0134
7 1 10 2.6237 -0.0036
7 1 11 2.8038 0.0097
7 1 12 2.6331 0.0161
7 1 13 2.2384 0.0079
7 1 14 1.7721 -0.0127
7 1 15 1.3377 -0.0336
7 1 16 0.9506 -0.0400
7 1 17 0.5579 -0.0251
7 1 18 0.1026 0.0026
7 1 19 -0.4134 0.0216
7 1 20 -0.9106 0.0106
7 1 21 -1.2702 -0.0371
7 2 0 0.2573 -0.0634
7 2 1 0.5073 -0.0444
7 2 2 0.8666 -0.0306
7 2 3 1.2553 -0.0266
7 2 4 1.6022 -0.0302
7 2 5 1.8189 -0.0358
7 2 6 1.8006 -0.0385
7 2 7 1.4745 -0.0370
7 2 8 0.8669 -0.0323
7 2 9 0.1388 -0.0253
7 2 10 -0.4527 -0.0154
7 2 11 -0.6624 -0.0020
7 2 12 -0.3796 0.0122
7 2 13 0.3039 0.0206
7 2 14 1.1219 0.0160
7 2 15 1.7456 -0.0032
7 2 16 1.9208 -0.0289
7 2 17 1.5629 -0.0454
7 2 18 0.7727 -0.0392
7 2 19 -0.2197 -0.0088
7 2 20 -1.1469 0.0300
7 2 21 -1.7887 0.0509
7 3 0 -4.2277 0.0075
7 3 1 -3.9950 0.0068
7 3 2 -3.2413 0.0137
7 3 3 -2.1985 0.0229
7 3 4 -1.0832 0.0305
7 3 5 -0.0097 0.0353
7 3 6 1.0148 0.0380
7 3 7 2.0239 0.0382
7 3 8 3.0091 0.0334
7 3 9 3.8707 0.0214
7 3 10 4.4323 0.0046
7 3 11 4.5102 -0.0083
7 3 12 4.0039 -0.0054
7 3 13 2.9664 0.0193
7 3 14 1.6198 0.0591
7 3 15 0.2996 0.0947
7 3 16 -0.6599 0.1047
7 3 17 -1.0581 0.0801
7 3 18 -0.9166 0.0339
7 3 19 -0.4727 -0.0025
7 3 20 -0.0670 0.0040
7 3 21 0.0272 0.0674
7 4 0 -6.0097 0.0140
7 4 1 -5.5817 0.0136
7 4 2 -4.8894 0.0251
7 4 3 -4.2128 0.0375
7 4 4 -3.6452 0.0368
7 4 5 -3.0603 0.0165
7 4 6 -2.2385 -0.0170
7 4 7 -1.0668 -0.0465
7 4 8 0.3256 -0.0545
7 4 9 1.5896 -0.0347
7 4 10 2.3309 0.0033
7 4 11 2.3286 0.0393
7 4 12 1.6659 0.0554
7 4 13 0.6968 0.0464
7 4 14 -0.1265 0.0227
7 4 15 -0.4641 0.0015
7 4 16 -0.2239 -0.0067
7 4 17 0.4339 -0.0064
7 4 18 1.2042 -0.0151
7 4 19 1.7834 -0.0502
7 4 20 1.9831 -0.1145
7 4 21 1.7740 -0.1901
7 5 0 -3.2579 -0.0313
7 5 1 -3.5026 -0.0321
7 5 2 -3.3027 -0.0325
7 5 3 -2.7545 -0.0323
7 5 4 -1.9851 -0.0320
7 5 5 -1.1136 -0.0319
7 5 6 -0.2486 -0.0316
7 5 7 0.4956 -0.0284
7 5 8 0.9982 -0.0184
7 5 9 1.1645 0.0006
7 5 10 0.9761 0.0258
7 5 11 0.5190 0.0472
7 5 12 -0.0421 0.0522
7 5 13 -0.5370 0.0328
7 5 14 -0.8708 -0.0065
7 5 15 -1.0582 -0.0472
7 5 16 -1.1888 -0.0647
7 5 17 -1.3457 -0.0424
7 5 18 -1.5353 0.0163
7 5 19 -1.6762 0.0854
7 5 20 -1.6561 0.1288
7 5 21 -1.4158 0.1188
7 6 0 -1.7881 -0.0327
7 6 1 -1.5826 -0.0295
7 6 2 -1.1134 -0.0297
7 6 3 -0.5527 -0.0332
7 6 4 -0.0698 -0.0353
7 6 5 0.2624 -0.0299
7 6 6 0.5041 -0.0154
7 6 7 0.8038 0.0024
7 6 8 1.2926 0.0132
7 6 9 1.9827 0.0086
7 6 10 2.7325 -0.0100
7 6 11 3.3021 -0.0312
7 6 12 3.4728 -0.0396
7 6 13 3.1624 -0.0264
7 6 14 2.4735 0.0034
7 6 15 1.6486 0.0342
7 6 16 0.9580 0.0509
7 6 17 0.5784 0.0508
7 6 18 0.5252 0.0479
7 6 19 0.6664 0.0637
7 6 20 0.8040 0.1115
7 6 21 0.7779 0.1839
7 7 0 -0.7576 0.0198
7 7 1 -0.0545 0.0148
7 7 2 0.4812 0.0128
7 7 3 0.7566 0.0152
7 7 4 0.8317 0.0210
7 7 5 0.8309 0.0284
7 7 6 0.8493 0.0359
7 7 7 0.9019 0.0422
7 7 8 0.9361 0.0456
7 7 9 0.8845 0.0428
7 7 10 0.7211 0.0315
7 7 11 0.4875 0.0127
7 7 12 0.2758 -0.0071
7 7 13 0.1834 -0.0177
7 7 14 0.2648 -0.0103
7 7 15 0.5076 0.0172
7 7 16 0.8424 0.0586
7 7 17 1.1775 0.1021
7 7 18 1.4380 0.1380
7 7 19 1.5888 0.1638
7 7 20 1.6315 0.1840
7 8 0 -2.5952 0.0077
7 8 1 -2.4651 0.0261
7 8 2 -2.1979 0.0184
7 8 3 -1.7982 -0.0118
7 8 4 -1.1758 -0.0495
7 8 5 -0.2819 -0.0771
7 8 6 0.7804 -0.0849
7 8 7 1.7576 -0.0747
7 8 8 2.3639 -0.0576
7 8 9 2.4387 -0.0467
7 8 10 2.0407 -0.0498
7 8 11 1.4175 -0.0659
7 8 12 0.8683 -0.0856
7 8 13 0.5862 -0.0957
7 8 14 0.5739 -0.0846
7 8 15 0.6776 -0.0486
7 8 16 0.7108 0.0050
7 8 17 0.5839 0.0585
7 8 18 0.3584 0.0906
7 8 19 0.1991 0.0861
7 9 0 -3.2432 0.0089
7 9 1 -2.6564 0.0152
7 9 2 -2.0229 0.0214
7 9 3 -1.3644 0.0261
7 9 4 -0.6017 0.0334
7 9 5 0.3217 0.0499
7 9 6 1.3267 0.0769
7 9 7 2.1898 0.1059
7 9 8 2.6550 0.1203
7 9 9 2.5970 0.1058
7 9 10 2.1251 0.0616
7 9 11 1.5480 0.0044
7 9 12 1.2104 -0.0382
7 9 13 1.2955 -0.0430
7 9 14 1.7132 -0.0057
7 9 15 2.1458 0.0546
7 9 16 2.2268 0.1038
7 9 17 1.7501 0.1099
7 9 18 0.7895 0.0579
7 9 19 -0.3370 -0.0436
7 10 0 1.2985 0.0474
7 10 1 0.7713 0.0048
7 10 2 -0.6509 -0.0376
7 10 3 -2.4935 -0.0661
7 10 4 -4.0908 -0.0722
7 10 5 -4.9076 -0.0566
7 10 6 -4.7637 -0.0283
7 10 7 -3.8577 -0.0003
7 10 8 -2.6065 0.0162
7 10 9 -1.4143 0.0172
7 10 10 -0.5048 0.0081
7 10 11 0.1047 0.0003
7 10 12 0.5078 0.0046
7 10 13 0.7770 0.0232
7 10 14 0.8891 0.0467
7 10 15 0.7487 0.0559
7 10 16 0.2841 0.0314
7 10 17 -0.4606 -0.0361
7 10 18 -1.3003 -0.1396
7 11 0 -1.8990 0.0525
7 11 1 -1.7075 0.0694
7 11 2 -1.9938 0.0419
7 11 3 -2.4365 -0.0114
7 11 4 -2.5561 -0.0585
7 11 5 -2.0281 -0.0745
7 11 6 -0.8928 -0.0559
7 11 7 0.4564 -0.0189
7 11 8 1.4894 0.0141
7 11 9 1.8214 0.0312
7 11 10 1.3981 0.0369
7 11 11 0.4919 0.0457
7 11 12 -0.4670 0.0684
7 11 13 -1.1129 0.1012
7 11 14 -1.2969 0.1261
7 11 15 -1.1031 0.1203
7 11 16 -0.7487 0.0702
7 12 0 -2.1242 0.0006
7 12 1 -2.6298 -0.0128
7 12 2 -3.6701 -0.0202
7 12 3 -5.0067 -0.0278
7 12 4 -6.0641 -0.0360
7 12 5 -6.2700 -0.0409
7 12 6 -5.4112 -0.0407
7 12 7 -3.7779 -0.0414
7 12 8 -2.0078 -0.0532
7 12 9 -0.7330 -0.0797
7 12 10 -0.2506 -0.1109
7 12 11 -0.4111 -0.1256
7 12 12 -0.7728 -0.1063
7 12 13 -0.9038 -0.0553
7 12 14 -0.6375 -0.0005
7 13 0 2.8061 0.0088
7 13 1 2.7821 0.0029
7 13 2 2.1229 -0.0043
7 13 3 0.9384 -0.0132
7 13 4 -0.4418 -0.0193
7 13 5 -1.6334 -0.0170
7 13 6 -2.3760 -0.0059
7 13 7 -2.6219 0.0068
7 13 8 -2.5001 0.0104
7 13 9 -2.1997 0.0020
7 13 10 -1.8625 -0.0068
7 13 11 -1.5478 0.0070
7 13 12 -1.2707 0.0616
7 14 0 -4.9947 -0.0025
7 14 1 -5.7022 0.0089
7 14 2 -5.4409 -0.0139
7 14 3 -4.0630 -0.0468
7 14 4 -1.8095 -0.0596
7 14 5 0.7494 -0.0401
7 14 6 2.9162 -0.0049
7 14 7 4.1259 0.0098
7 14 8 4.1519 -0.0270
7 14 9 3.1726 -0.1171
8 -11 0 -0.4177 0.0299
8 -10 0 -1.2970 0.0674
8 -10 1 -1.2704 0.0406
8 -10 2 -0.8197 0.0144
8 -10 3 -0.1413 -0.0003
8 -10 4 0.4504 0.0027
8 -10 5 0.6976 0.0221
8 -10 6 0.5256 0.0504
8 -9 0 0.9526 0.0441
8 -9 1 0.1305 0.0490
8 -9 2 -0.2985 0.0435
8 -9 3 -0.1838 0.0322
8 -9 4 0.3009 0.0208
8 -9 5 0.7760 0.0137
8 -9 6 0.8866 0.0139
8 -9 7 0.5041 0.0229
8 -9 8 -0.2188 0.0388
8 -9 9 -0.9608 0.0561
8 -8 0 -2.7029 -0.0018
8 -8 1 -1.9655 0.0133
8 -8 2 -1.0839 0.0150
8 -8 3 -0.2282 0.0047
8 -8 4 0.5099 -0.0146
8 -8 5 1.0742 -0.0384
8 -8 6 1.4019 -0.0600
8 -8 7 1.4352 -0.0706
8 -8 8 1.1826 -0.0635
8 -8 9 0.7697 -0.0403
8 -8 10 0.4180 -0.0142
8 -8 11 0.3387 -0.0071
8 -7 0 -1.4766 -0.0342
8 -7 1 -0.1521 -0.0295
8 -7 2 1.1022 -0.0186
8 -7 3 1.8456 0.0014
8 -7 4 1.8649 0.0289
8 -7 5 1.2459 0.0558
8 -7 6 0.2996 0.0697
8 -7 7 -0.5934 0.0611
8 -7 8 -1.1286 0.0302
8 -7 9 -1.1526 -0.0118
8 -7 10 -0.6659 -0.0475
8 -7 11 0.2066 -0.0636
8 -7 12 1.2465 -0.0588
8 -7 13 2.1740 -0.0451
8 -6 0 -1.4227 0.0019
8 -6 1 -1.7240 0.0042
8 -6 2 -1.3673 0.0067
8 -6 3 -0.5624 0.0077
8 -6 4 0.2741 0.0068
8 -6 5 0.7486 0.0049
8 -6 6 0.6950 0.0034
8 -6 7 0.2350 0.0028
8 -6 8 -0.3326 0.0019
8 -6 9 -0.7309 -0.0011
8 -6 10 -0.8625 -0.0068
8 -6 11 -0.8303 -0.0137
8 -6 12 -0.8256 -0.0180
8 -6 13 -0.9704 -0.0154
8 -6 14 -1.2264 -0.0043
8 -5 0 -1.3784 0.0170
8 -5 1 -2.1539 0.0163
8 -5 2 -2.6254 0.0061
8 -5 3 -2.6650 -0.0101
8 -5 4 -2.2663 -0.0301
8 -5 5 -1.5739 -0.0513
8 -5 6 -0.8169 -0.0696
8 -5 7 -0.1855 -0.0782
8 -5 8 0.2638 -0.0706
8 -5 9 0.6057 -0.0456
8 -5 10 0.9479 -0.0103
8 -5 11 1.3122 0.0219
8 -5 12 1.5864 0.0381
8 -5 13 1.5893 0.0331
8 -5 14 1.2068 0.0135
8 -5 15 0.5016 -0.0061
8 -5 16 -0.2851 -0.0116
8 -4 0 -0.2515 0.0098
8 -4 1 -0.3040 -0.0035
8 -4 2 -0.6350 -0.0128
8 -4 3 -1.1384 -0.0134
8 -4 4 -1.5666 -0.0068
8 -4 5 -1.7081 0.0001
8 -4 6 -1.5241 0.0002
8 -4 7 -1.1497 -0.0080
8 -4 8 -0.7673 -0.0182
8 -4 9 -0.4606 -0.0204
8 -4 10 -0.1683 -0.0075
8 -4 11 0.2228 0.0174
8 -4 12 0.7203 0.0415
8 -4 13 1.1409 0.0488
8 -4 14 1.1823 0.0299
8 -4 15 0.6245 -0.0109
8 -4 16 -0.4775 -0.0566
8 -4 17 -1.7546 -0.0868
8 -3 0 2.7015 0.0215
8 -3 1 2.5178 -0.0004
8 -3 2 2.1253 -0.0166
8 -3 3 1.5177 -0.0204
8 -3 4 0.8474 -0.0100
8 -3 5 0.3555 0.0108
8 -3 6 0.2247 0.0344
8 -3 7 0.4501 0.0528
8 -3 8 0.8217 0.0610
8 -3 9 1.0389 0.0579
8 -3 10 0.8875 0.0454
8 -3 11 0.3712 0.0266
8 -3 12 -0.2883 0.0046
8 -3 13 -0.7796 -0.0168
8 -3 14 -0.8752 -0.0324
8 -3 15 -0.5451 -0.0358
8 -3 16 0.0508 -0.0221
8 -3 17 0.6729 0.0086
8 -3 18 1.1332 0.0484
8 -2 0 1.5510 0.0031
8 -2 1 1.2880 -0.0125
8 -2 2 1.1205 -0.0327
8 -2 3 1.0082 -0.0453
8 -2 4 0.9016 -0.0454
8 -2 5 0.7961 -0.0385
8 -2 6 0.7554 -0.0354
8 -2 7 0.8726 -0.0442
8 -2 8 1.1840 -0.0637
8 -2 9 1.5956 -0.0839
8 -2 10 1.8864 -0.0922
8 -2 11 1.8059 -0.0819
8 -2 12 1.2173 -0.0569
8 -2 13 0.1969 -0.0287
8 -2 14 -0.9793 -0.0094
8 -2 15 -1.9639 -0.0032
8 -2 16 -2.5079 -0.0044
8 -2 17 -2.5696 -0.0001
8 -2 18 -2.3014 0.0206
8 -1 0 -2.2971 0.0162
8 -1 1 -2.8570 0.0102
8 -1 2 -3.0229 0.0004
8 -1 3 -2.7482 -0.0084
8 -1 4 -2.1276 -0.0118
8 -1 5 -1.3751 -0.0092
8 -1 6 -0.7229 -0.0031
8 -1 7 -0.2983 0.0036
8 -1 8 -0.0598 0.0103
8 -1 9 0.1557 0.0196
8 -1 10 0.4985 0.0345
8 -1 11 0.9757 0.0542
8 -1 12 1.4224 0.0719
8 -1 13 1.6036 0.0775
8 -1 14 1.3821 0.0639
8 -1 15 0.8364 0.0330
8 -1 16 0.2370 -0.0032
8 -1 17 -0.1094 -0.0286
8 -1 18 -0.0486 -0.0320
8 -1 19 0.3265 -0.0142
8 0 0 -0.5054 -0.0001
8 0 1 -0.6698 -0.0068
8 0 2 -0.9953 -0.0084
8 0 3 -1.3551 -0.0048
8 0 4 -1.5462 0.0041
8 0 5 -1.4404 0.0172
8 0 6 -1.0859 0.0316
8 0 7 -0.6718 0.0423
8 0 8 -0.3780 0.0448
8 0 9 -0.2243 0.0370
8 0 10 -0.0420 0.0208
8 0 11 0.3964 0.0014
8 0 12 1.1778 -0.0154
8 0 13 2.1258 -0.0257
8 0 14 2.8580 -0.0290
8 0 15 2.9978 -0.0268
8 0 16 2.4058 -0.0205
8 0 17 1.2755 -0.0094
8 0 18 0.0294 0.0081
8 0 19 -0.9135 0.0326
8 1 0 -4.2006 -0.0194
8 1 1 -4.6312 -0.0324
8 1 2 -4.3888 -0.0415
8 1 3 -3.6132 -0.0401
8 1 4 -2.5602 -0.0280
8 1 5 -1.4874 -0.0113
8 1 6 -0.5737 0.0015
8 1 7 0.1072 0.0042
8 1 8 0.5716 -0.0035
8 1 9 0.8913 -0.0165
8 1 10 1.1534 -0.0275
8 1 11 1.4158 -0.0303
8 1 12 1.6650 -0.0224
8 1 13 1.8008 -0.0051
8 1 14 1.6690 0.0175
8 1 15 1.1439 0.0394
8 1 16 0.2233 0.0551
8 1 17 -0.9250 0.0604
8 1 18 -2.0067 0.0555
8 1 19 -2.7241 0.0452
8 1 20 -2.9126 0.0382
8 2 0 -2.5455 -0.0146
8 2 1 -3.5949 -0.0043
8 2 2 -4.0467 0.0092
8 2 3 -4.0223 0.0217
8 2 4 -3.7157 0.0272
8 2 5 -3.2731 0.0204
8 2 6 -2.7430 0.0011
8 2 7 -2.1144 -0.0236
8 2 8 -1.3968 -0.0416
8 2 9 -0.6685 -0.0414
8 2 10 -0.0497 -0.0202
8 2 11 0.3795 0.0133
8 2 12 0.6507 0.0419
8 2 13 0.9062 0.0504
8 2 14 1.3122 0.0353
8 2 15 1.9398 0.0077
8 2 16 2.6910 -0.0133
8 2 17 3.3265 -0.0151
8 2 18 3.5831 -0.0023
8 2 19 3.3152 0.0034
8 2 20 2.5762 -0.0243
8 3 0 0.7221 -0.0332
8 3 1 0.4030 -0.0280
8 3 2 0.1406 -0.0115
8 3 3 0.0231 0.0113
8 3 4 0.1418 0.0342
8 3 5 0.5050 0.0504
8 3 6 0.9902 0.0542
8 3 7 1.3801 0.0430
8 3 8 1.4711 0.0202
8 3 9 1.1934 -0.0049
8 3 10 0.6659 -0.0208
8 3 11 0.1485 -0.0211
8 3 12 -0.0849 -0.0096
8 3 13 0.1161 0.0004
8 3 14 0.7053 -0.0054
8 3 15 1.4644 -0.0305
8 3 16 2.1052 -0.0612
8 3 17 2.3919 -0.0704
8 3 18 2.2265 -0.0333
8 3 19 1.6671 0.0554
8 3 20 0.8871 0.1730
8 4 0 -4.4867 0.0164
8 4 1 -4.6840 0.0076
8 4 2 -4.1597 0.0077
8 4 3 -3.1623 0.0116
8 4 4 -2.0168 0.0144
8 4 5 -0.9590 0.0150
8 4 6 -0.0532 0.0144
8 4 7 0.7761 0.0140
8 4 8 1.6355 0.0130
8 4 9 2.5465 0.0101
8 4 10 3.3898 0.0070
8 4 11 3.9367 0.0097
8 4 12 3.9534 0.0253
8 4 13 3.3274 0.0547
8 4 14 2.1552 0.0867
8 4 15 0.7439 0.0998
8 4 16 -0.4881 0.0731
8 4 17 -1.1759 0.0015
8 4 18 -1.1673 -0.0950
8 4 19 -0.5943 -0.1762
8 4 20 0.1894 -0.2006
8 5 0 -5.0426 -0.0092
8 5 1 -4.7204 -0.0157
8 5 2 -3.9097 -0.0169
8 5 3 -3.0059 -0.0160
8 5 4 -2.2851 -0.0200
8 5 5 -1.7678 -0.0327
8 5 6 -1.2695 -0.0496
8 5 7 -0.5899 -0.0588
8 5 8 0.2958 -0.0490
8 5 9 1.1804 -0.0180
8 5 10 1.7411 0.0231
8 5 11 1.7495 0.0558
8 5 12 1.2345 0.0646
8 5 13 0.4922 0.0469
8 5 14 -0.0633 0.0141
8 5 15 -0.1123 -0.0163
8 5 16 0.4179 -0.0334
8 5 17 1.3389 -0.0413
8 5 18 2.3147 -0.0562
8 5 19 3.0249 -0.0953
8 5 20 3.2875 -0.1618
8 6 0 -1.9898 -0.0347
8 6 1 -3.4362 -0.0342
8 6 2 -4.4019 -0.0348
8 6 3 -4.7520 -0.0366
8 6 4 -4.4590 -0.0380
8 6 5 -3.5905 -0.0369
8 6 6 -2.3017 -0.0310
8 6 7 -0.8286 -0.0189
8 6 8 0.5419 -0.0001
8 6 9 1.5391 0.0230
8 6 10 1.9950 0.0438
8 6 11 1.9095 0.0520
8 6 12 1.4496 0.0375
8 6 13 0.8715 -0.0026
8 6 14 0.4029 -0.0582
8 6 15 0.1490 -0.1061
8 6 16 0.0734 -0.1187
8 6 17 0.0590 -0.0785
8 6 18 0.0040 0.0099
8 6 19 -0.1117 0.1176
8 6 20 -0.2283 0.2028
8 7 0 -1.0763 -0.0268
8 7 1 -0.6657 -0.0022
8 7 2 -0.0243 0.0180
8 7 3 0.5906 0.0256
8 7 4 0.9377 0.0211
8 7 5 0.9116 0.0124
8 7 6 0.5998 0.0078
8 7 7 0.2415 0.0099
8 7 8 0.1076 0.0127
8 7 9 0.3614 0.0065
8 7 10 0.9723 -0.0138
8 7 11 1.7255 -0.0431
8 7 12 2.3205 -0.0677
8 7 13 2.5073 -0.0732
8 7 14 2.1941 -0.0541
8 7 15 1.4775 -0.0169
8 7 16 0.5899 0.0255
8 7 17 -0.2051 0.0632
8 7 18 -0.7176 0.0968
8 7 19 -0.8913 0.1348
8 8 0 0.6666 0.0075
8 8 1 1.5212 -0.0090
8 8 2 2.0911 -0.0313
8 8 3 2.0727 -0.0504
8 8 4 1.4504 -0.0586
8 8 5 0.4419 -0.0510
8 8 6 -0.6483 -0.0278
8 8 7 -1.5721 0.0049
8 8 8 -2.2076 0.0356
8 8 9 -2.5391 0.0510
8 8 10 -2.5883 0.0426
8 8 11 -2.3601 0.0122
8 8 12 -1.8418 -0.0257
8 8 13 -1.0498 -0.0495
8 8 14 -0.0815 -0.0405
8 8 15 0.8777 0.0072
8 8 16 1.6089 0.0824
8 8 17 1.9509 0.1626
8 8 18 1.8752 0.2260
8 9 0 -2.6483 0.0388
8 9 1 -3.1084 0.0686
8 9 2 -3.2868 0.0687
8 9 3 -3.2564 0.0367
8 9 4 -2.9982 -0.0118
8 9 5 -2.4720 -0.0530
8 9 6 -1.7174 -0.0687
8 9 7 -0.8973 -0.0551
8 9 8 -0.2420 -0.0238
8 9 9 0.0744 0.0069
8 9 10 0.0435 0.0223
8 9 11 -0.1599 0.0199
8 9 12 -0.2699 0.0096
8 9 13 -0.0802 0.0088
8 9 14 0.4366 0.0331
8 9 15 1.1130 0.0869
8 9 16 1.6809 0.1594
8 9 17 1.9193 0.2272
8 9 18 1.7686 0.2631
8 10 0 -3.3947 -0.0285
8 10 1 -2.9851 -0.0247
8 10 2 -2.7510 -0.0216
8 10 3 -2.7059 -0.0242
8 10 4 -2.6501 -0.0302
8 10 5 -2.3233 -0.0303
8 10 6 -1.6068 -0.0152
8 10 7 -0.6376 0.0147
8 10 8 0.2481 0.0464
8 10 9 0.7091 0.0609
8 10 10 0.6061 0.0466
8 10 11 0.0889 0.0096
8 10 12 -0.4935 -0.0269
8 10 13 -0.8033 -0.0343
8 10 14 -0.7134 0.0031
8 10 15 -0.3727 0.0763
8 10 16 -0.1010 0.1538
8 11 0 3.1868 0.0423
8 11 1 3.6053 0.0248
8 11 2 2.5648 -0.0001
8 11 3 0.3308 -0.0235
8 11 4 -2.3192 -0.0385
8 11 5 -4.4655 -0.0429
8 11 6 -5.4582 -0.0391
8 11 7 -5.1613 -0.0341
8 11 8 -3.9235 -0.0361
8 11 9 -2.3306 -0.0494
8 11 10 -0.9020 -0.0701
8 11 11 0.1024 -0.0846
8 11 12 0.6888 -0.0754
8 11 13 0.9929 -0.0316
8 11 14 1.1199 0.0410
8 11 15 1.0691 0.1172
8 12 0 -2.1315 -0.0021
8 12 1 -1.3481 0.0299
8 12 2 -0.9896 0.0255
8 12 3 -1.0289 -0.0080
8 12 4 -1.1694 -0.0457
8 12 5 -1.0454 -0.0626
8 12 6 -0.4541 -0.0499
8 12 7 0.5222 -0.0185
8 12 8 1.5671 0.0108
8 12 9 2.3124 0.0231
8 12 10 2.5362 0.0201
8 12 11 2.2619 0.0183
8 12 12 1.7150 0.0365
8 12 13 1.1779 0.0815
8 13 0 0.5308 0.0317
8 13 1 -0.1213 0.0310
8 13 2 -1.4594 0.0436
8 13 3 -3.3313 0.0548
8 13 4 -5.1661 0.0546
8 13 5 -6.2575 0.0430
8 13 6 -6.1539 0.0247
8 13 7 -4.9185 0.0011
8 13 8 -3.1006 -0.0324
8 13 9 -1.4402 -0.0796
8 13 10 -0.4853 -0.1344
8 14 0 0.6039 -0.0885
8 14 1 1.1901 -0.0594
8 14 2 1.0985 -0.0108
8 14 3 0.3396 0.0356
8 14 4 -0.7549 0.0645
8 14 5 -1.7162 0.0740
9 -10 0 0.6505 0.0314
9 -9 0 -0.7578 0.0759
9 -9 1 -1.2883 0.0509
9 -9 2 -1.0250 0.0206
9 -9 3 -0.1291 -0.0023
9 -9 4 0.9600 -0.0091
9 -9 5 1.7667 -0.0001
9 -9 6 2.0085 0.0144
9 -8 0 1.2794 -0.0667
9 -8 1 -0.1588 -0.0674
9 -8 2 -1.2926 -0.0624
9 -8 3 -1.7185 -0.0517
9 -8 4 -1.4190 -0.0370
9 -8 5 -0.7332 -0.0220
9 -8 6 -0.1367 -0.0100
9 -8 7 0.0329 -0.0033
9 -8 8 -0.2577 -0.0030
9 -8 9 -0.7645 -0.0099
9 -7 0 -0.8134 -0.0184
9 -7 1 -0.3859 -0.0117
9 -7 2 0.1121 -0.0107
9 -7 3 0.5808 -0.0124
9 -7 4 0.9861 -0.0155
9 -7 5 1.3028 -0.0214
9 -7 6 1.4594 -0.0309
9 -7 7 1.3483 -0.0407
9 -7 8 0.9069 -0.0424
9 -7 9 0.2098 -0.0281
9 -7 10 -0.5132 0.0017
9 -7 11 -0.9690 0.0342
9 -6 0 0.4240 0.0010
9 -6 1 1.4509 -0.0030
9 -6 2 2.2717 -0.0086
9 -6 3 2.5272 -0.0076
9 -6 4 2.0898 0.0042
9 -6 5 1.1232 0.0217
9 -6 6 -0.0154 0.0313
9 -6 7 -0.9581 0.0194
9 -6 8 -1.4777 -0.0165
9 -6 9 -1.5317 -0.0626
9 -6 10 -1.2039 -0.0949
9 -6 11 -0.6161 -0.0930
9 -6 12 0.1162 -0.0545
9 -6 13 0.8688 0.0004
9 -5 0 -0.4302 0.0222
9 -5 1 -0.5954 0.0223
9 -5 2 -0.4150 0.0192
9 -5 3 -0.0017 0.0159
9 -5 4 0.3992 0.0161
9 -5 5 0.5645 0.0227
9 -5 6 0.4313 0.0345
9 -5 7 0.1234 0.0456
9 -5 8 -0.1501 0.0474
9 -5 9 -0.2498 0.0339
9 -5 10 -0.2039 0.0064
9 -5 11 -0.1800 -0.0258
9 -5 12 -0.3506 -0.0492
9 -5 13 -0.7475 -0.0529
9 -5 14 -1.2119 -0.0349
9 -4 0 -0.6047 -0.0334
9 -4 1 -1.1426 -0.0252
9 -4 2 -1.5399 -0.0190
9 -4 3 -1.7147 -0.0152
9 -4 4 -1.6321 -0.0157
9 -4 5 -1.3437 -0.0220
9 -4 6 -0.9603 -0.0329
9 -4 7 -0.5783 -0.0422
9 -4 8 -0.2225 -0.0416
9 -4 9 0.1407 -0.0243
9 -4 10 0.5260 0.0096
9 -4 11 0.8505 0.0524
9 -4 12 0.9308 0.0914
9 -4 13 0.5785 0.1154
9 -4 14 -0.2569 0.1196
9 -4 15 -1.3989 0.1073
9 -3 0 0.0108 -0.0137
9 -3 1 -0.0103 -0.0226
9 -3 2 -0.2197 -0.0280
9 -3 3 -0.6149 -0.0241
9 -3 4 -1.0479 -0.0115
9 -3 5 -1.3402 0.0022
9 -3 6 -1.4083 0.0071
9 -3 7 -1.3016 -0.0023
9 -3 8 -1.1302 -0.0215
9 -3 9 -0.9496 -0.0381
9 -3 10 -0.7045 -0.0396
9 -3 11 -0.2899 -0.0234
9 -3 12 0.3172 -0.0003
9 -3 13 0.9620 0.0102
9 -3 14 1.3486 -0.0085
9 -3 15 1.2059 -0.0590
9 -3 16 0.4798 -0.1264
9 -2 0 3.4165 0.0359
9 -2 1 3.4583 0.0044
9 -2 2 3.2145 -0.0247
9 -2 3 2.6286 -0.0362
9 -2 4 1.8364 -0.0224
9 -2 5 1.1139 0.0126
9 -2 6 0.7192 0.0540
9 -2 7 0.7310 0.0830
9 -2 8 0.9912 0.0865
9 -2 9 1.1970 0.0628
9 -2 10 1.0857 0.0217
9 -2 11 0.5954 -0.0210
9 -2 12 -0.1015 -0.0510
9 -2 13 -0.7088 -0.0610
9 -2 14 -0.9842 -0.0504
9 -2 15 -0.8699 -0.0228
9 -2 16 -0.4992 0.0175
9 -2 17 -0.0917 0.0667
9 -1 0 1.0598 0.0131
9 -1 1 0.9833 0.0023
9 -1 2 1.0162 -0.0193
9 -1 3 1.1101 -0.0403
9 -1 4 1.1557 -0.0514
9 -1 5 1.0688 -0.0508
9 -1 6 0.8708 -0.0449
9 -1 7 0.6960 -0.0418
9 -1 8 0.7035 -0.0454
9 -1 9 0.9508 -0.0519
9 -1 10 1.3157 -0.0530
9 -1 11 1.5332 -0.0422
9 -1 12 1.3357 -0.0204
9 -1 13 0.6118 0.0036
9 -1 14 -0.5141 0.0179
9 -1 15 -1.7340 0.0158
9 -1 16 -2.7074 0.0007
9 -1 17 -3.2185 -0.0145
9 -1 18 -3.2501 -0.0143
9 0 0 -0.9174 0.0071
9 0 1 -1.4749 0.0098
9 0 2 -1.5145 0.0072
9 0 3 -1.0522 0.0029
9 0 4 -0.3095 0.0016
9 0 5 0.3717 0.0053
9 0 6 0.6890 0.0119
9 0 7 0.5350 0.0177
9 0 8 0.0588 0.0209
9 0 9 -0.4138 0.0238
9 0 10 -0.5629 0.0312
9 0 11 -0.2533 0.0451
9 0 12 0.3992 0.0617
9 0 13 1.1147 0.0716
9 0 14 1.6297 0.0658
9 0 15 1.8511 0.0428
9 0 16 1.8843 0.0117
9 0 17 1.9236 -0.0113
9 0 18 2.0891 -0.0125
9 1 0 -0.9555 0.0227
9 1 1 -1.3107 0.0086
9 1 2 -1.8444 -0.0029
9 1 3 -2.3455 -0.0047
9 1 4 -2.5290 0.0058
9 1 5 -2.2266 0.0243
9 1 6 -1.5212 0.0407
9 1 7 -0.7154 0.0441
9 1 8 -0.1405 0.0284
9 1 9 0.0684 -0.0031
9 1 10 0.0690 -0.0387
9 1 11 0.2038 -0.0635
9 1 12 0.7524 -0.0681
9 1 13 1.7114 -0.0526
9 1 14 2.7564 -0.0269
9 1 15 3.4184 -0.0036
9 1 16 3.3601 0.0101
9 1 17 2.5741 0.0178
9 1 18 1.3804 0.0314
9 1 19 0.2349 0.0636
9 2 0 -2.8419 -0.0520
9 2 1 -3.9657 -0.0621
9 2 2 -4.5380 -0.0685
9 2 3 -4.4603 -0.0675
9 2 4 -3.8596 -0.0586
9 2 5 -3.0047 -0.0449
9 2 6 -2.1848 -0.0313
9 2 7 -1.6051 -0.0218
9 2 8 -1.3278 -0.0170
9 2 9 -1.2697 -0.0145
9 2 10 -1.2537 -0.0103
9 2 11 -1.0991 -0.0021
9 2 12 -0.7200 0.0095
9 2 13 -0.1843 0.0205
9 2 14 0.3060 0.0246
9 2 15 0.5162 0.0152
9 2 16 0.3146 -0.0124
9 2 17 -0.2364 -0.0585
9 2 18 -0.8953 -0.1174
9 2 19 -1.3629 -0.1775
9 3 0 -0.2996 -0.0122
9 3 1 -1.4504 -0.0128
9 3 2 -2.1410 -0.0027
9 3 3 -2.4578 0.0141
9 3 4 -2.5674 0.0293
9 3 5 -2.5846 0.0338
9 3 6 -2.5162 0.0219
9 3 7 -2.3101 -0.0036
9 3 8 -1.9583 -0.0319
9 3 9 -1.5586 -0.0486
9 3 10 -1.2762 -0.0444
9 3 11 -1.2217 -0.0212
9 3 12 -1.3366 0.0086
9 3 13 -1.3788 0.0294
9 3 14 -1.0395 0.0328
9 3 15 -0.1306 0.0241
9 3 16 1.2729 0.0178
9 3 17 2.8279 0.0271
9 3 18 4.0677 0.0515
9 3 19 4.6175 0.0736
9 4 0 1.4699 -0.0093
9 4 1 0.6986 -0.0237
9 4 2 -0.2550 -0.0239
9 4 3 -1.1692 -0.0066
9 4 4 -1.7467 0.0248
9 4 5 -1.7603 0.0593
9 4 6 -1.1817 0.0827
9 4 7 -0.2155 0.0835
9 4 8 0.7857 0.0602
9 4 9 1.4827 0.0235
9 4 10 1.7013 -0.0083
9 4 11 1.4963 -0.0203
9 4 12 1.1016 -0.0107
9 4 13 0.7992 0.0067
9 4 14 0.7816 0.0113
9 4 15 1.0727 -0.0084
9 4 16 1.5377 -0.0437
9 4 17 1.9618 -0.0661
9 4 18 2.1536 -0.0423
9 4 19 2.0207 0.0434
9 5 0 -3.2788 -0.0237
9 5 1 -3.7566 -0.0183
9 5 2 -3.3642 -0.0065
9 5 3 -2.3288 0.0022
9 5 4 -1.0847 0.0007
9 5 5 -0.0387 -0.0114
9 5 6 0.6152 -0.0281
9 5 7 0.9454 -0.0419
9 5 8 1.1892 -0.0476
9 5 9 1.5822 -0.0441
9 5 10 2.2046 -0.0317
9 5 11 2.9210 -0.0098
9 5 12 3.4385 0.0225
9 5 13 3.4546 0.0620
9 5 14 2.8210 0.0965
9 5 15 1.6438 0.1054
9 5 16 0.2651 0.0696
9 5 17 -0.8728 -0.0160
9 5 18 -1.4220 -0.1331
9 5 19 -1.2856 -0.2434
9 6 0 -4.8122 -0.0163
9 6 1 -4.9724 -0.0260
9 6 2 -4.3569 -0.0383
9 6 3 -3.3644 -0.0504
9 6 4 -2.4065 -0.0616
9 6 5 -1.6849 -0.0699
9 6 6 -1.1401 -0.0703
9 6 7 -0.5818 -0.0556
9 6 8 0.1121 -0.0222
9 6 9 0.8756 0.0244
9 6 10 1.4966 0.0692
9 6 11 1.7790 0.0933
9 6 12 1.7022 0.0839
9 6 13 1.4595 0.0422
9 6 14 1.3486 -0.0166
9 6 15 1.5888 -0.0717
9 6 16 2.1874 -0.1085
9 6 17 2.9370 -0.1268
9 6 18 3.5367 -0.1388
9 7 0 -1.4632 0.0295
9 7 1 -3.7055 0.0434
9 7 2 -5.5981 0.0484
9 7 3 -6.8330 0.0421
9 7 4 -7.2425 0.0281
9 7 5 -6.8070 0.0139
9 7 6 -5.6470 0.0069
9 7 7 -4.0080 0.0117
9 7 8 -2.2265 0.0277
9 7 9 -0.6611 0.0494
9 7 10 0.4091 0.0673
9 7 11 0.8786 0.0703
9 7 12 0.8513 0.0498
9 7 13 0.5852 0.0050
9 7 14 0.3639 -0.0531
9 7 15 0.3607 -0.1030
9 7 16 0.5686 -0.1200
9 7 17 0.8351 -0.0873
9 7 18 0.9731 -0.0073
9 8 0 -1.0326 -0.0312
9 8 1 -0.6599 0.0142
9 8 2 0.0169 0.0568
9 8 3 0.6742 0.0768
9 8 4 0.9840 0.0670
9 8 5 0.7688 0.0362
9 8 6 0.0887 0.0037
9 8 7 -0.7841 -0.0142
9 8 8 -1.4925 -0.0135
9 8 9 -1.7576 -0.0051
9 8 10 -1.5005 -0.0059
9 8 11 -0.8669 -0.0263
9 8 12 -0.1503 -0.0629
9 8 13 0.3412 -0.0996
9 8 14 0.4105 -0.1171
9 8 15 0.0362 -0.1039
9 8 16 -0.6394 -0.0610
9 8 17 -1.3828 0.0005
9 9 0 1.6965 0.0178
9 9 1 2.7476 0.0129
9 9 2 3.4822 -0.0018
9 9 3 3.4011 -0.0197
9 9 4 2.3606 -0.0336
9 9 5 0.5966 -0.0363
9 9 6 -1.4230 -0.0233
9 9 7 -3.2184 0.0041
9 9 8 -4.4656 0.0368
9 9 9 -5.0463 0.0591
9 9 10 -4.9905 0.0562
9 9 11 -4.3853 0.0230
9 9 12 -3.3238 -0.0292
9 9 13 -1.9205 -0.0748
9 9 14 -0.3585 -0.0857
9 9 15 1.0934 -0.0457
9 9 16 2.1348 0.0399
9 10 0 -3.3739 -0.0184
9 10 1 -3.8027 0.0137
9 10 2 -3.8136 0.0316
9 10 3 -3.5899 0.0249
9 10 4 -3.2763 -0.0004
9 10 5 -2.9373 -0.0276
9 10 6 -2.5873 -0.0398
9 10 7 -2.2479 -0.0305
9 10 8 -1.9716 -0.0059
9 10 9 -1.8119 0.0196
9 10 10 -1.7636 0.0332
9 10 11 -1.7287 0.0316
9 10 12 -1.5455 0.0238
9 10 13 -1.0773 0.0271
9 10 14 -0.3091 0.0580
9 10 15 0.6113 0.1234
9 11 0 -2.0666 -0.0427
9 11 1 -1.6745 -0.0541
9 11 2 -1.6191 -0.0623
9 11 3 -1.9729 -0.0738
9 11 4 -2.5201 -0.0900
9 11 5 -2.8792 -0.1030
9 11 6 -2.7409 -0.0996
9 11 7 -2.0698 -0.0732
9 11 8 -1.1418 -0.0318
9 11 9 -0.3906 0.0034
9 11 10 -0.1571 0.0107
9 11 11 -0.4967 -0.0168
9 11 12 -1.1586 -0.0632
9 11 13 -1.7456 -0.0967
9 12 0 1.7738 -0.0291
9 12 1 3.5575 0.0021
9 12 2 3.7829 0.0390
9 12 3 2.3464 0.0755
9 12 4 -0.1470 0.1022
9 12 5 -2.6790 0.1112
9 12 6 -4.3000 0.0996
9 12 7 -4.5397 0.0690
9 12 8 -3.5462 0.0223
9 12 9 -1.9138 -0.0373
9 12 10 -0.3315 -0.1035
9 12 11 0.7398 -0.1629
9 13 0 -0.4113 -0.0297
9 13 1 0.3892 -0.0183
9 13 2 0.9752 -0.0123
9 13 3 1.1091 -0.0140
9 13 4 0.8201 -0.0143
9 13 5 0.3717 -0.0024
9 13 6 0.1001 0.0238
9 13 7 0.2244 0.0542
9 13 8 0.7397 0.0728
10 -8 0 0.4335 0.0351
10 -8 1 -0.4237 0.0224
10 -8 2 -0.5428 0.0000
10 -8 3 0.0560 -0.0215
10 -8 4 1.0212 -0.0313
10 -8 5 1.8809 -0.0271
10 -7 0 0.5417 -0.0841
10 -7 1 -0.6164 -0.1021
10 -7 2 -1.7477 -0.1008
10 -7 3 -2.3600 -0.0801
10 -7 4 -2.2564 -0.0459
10 -7 5 -1.6070 -0.0078
10 -7 6 -0.8122 0.0228
10 -7 7 -0.2559 0.0368
10 -7 8 -0.0992 0.0289
10 -6 0 2.3950 0.0173
10 -6 1 2.4870 0.0074
10 -6 2 2.4733 0.0030
10 -6 3 2.3318 0.0113
10 -6 4 2.1346 0.0325
10 -6 5 1.9685 0.0585
10 -6 6 1.8394 0.0760
10 -6 7 1.6432 0.0760
10 -6 8 1.2360 0.0603
10 -6 9 0.5581 0.0416
10 -6 10 -0.2823 0.0357
10 -5 0 2.4693 0.0458
10 -5 1 3.1531 0.0354
10 -5 2 3.5527 0.0112
10 -5 3 3.3707 -0.0161
10 -5 4 2.5442 -0.0324
10 -5 5 1.3106 -0.0307
10 -5 6 0.0962 -0.0172
10 -5 7 -0.7027 -0.0073
10 -5 8 -0.9086 -0.0138
10 -5 9 -0.6088 -0.0352
10 -5 10 -0.0491 -0.0542
10 -5 11 0.5340 -0.0480
10 -5 12 1.0233 -0.0055
10 -4 0 1.0994 0.0255
10 -4 1 1.3024 0.0317
10 -4 2 1.5709 0.0269
10 -4 3 1.7668 0.0160
10 -4 4 1.7165 0.0071
10 -4 5 1.3389 0.0082
10 -4 6 0.7323 0.0215
10 -4 7 0.1441 0.0403
10 -4 8 -0.1730 0.0509
10 -4 9 -0.1293 0.0401
10 -4 10 0.1258 0.0041
10 -4 11 0.2828 -0.0473
10 -4 12 0.0643 -0.0943
10 -4 13 -0.5881 -0.1173
10 -3 0 -0.6771 -0.0183
10 -3 1 -0.5463 -0.0193
10 -3 2 -0.3882 -0.0105
10 -3 3 -0.2392 0.0050
10 -3 4 -0.1287 0.0203
10 -3 5 -0.0953 0.0280
10 -3 6 -0.1609 0.0242
10 -3 7 -0.2835 0.0117
10 -3 8 -0.3446 -0.0005
10 -3 9 -0.2090 -0.0016
10 -3 10 0.1643 0.0152
10 -3 11 0.6379 0.0499
10 -3 12 0.9159 0.0946
10 -3 13 0.6858 0.1372
10 -3 14 -0.1892 0.1652
10 -2 0 -1.6247 -0.0298
10 -2 1 -1.4364 -0.0207
10 -2 2 -0.9932 -0.0163
10 -2 3 -0.4390 -0.0123
10 -2 4 0.1118 -0.0040
10 -2 5 0.5749 0.0083
10 -2 6 0.8709 0.0190
10 -2 7 0.9279 0.0205
10 -2 8 0.7291 0.0096
10 -2 9 0.3696 -0.0094
10 -2 10 0.0556 -0.0271
10 -2 11 0.0139 -0.0364
10 -2 12 0.3523 -0.0380
10 -2 13 0.9620 -0.0414
10 -2 14 1.5447 -0.0582
10 -2 15 1.7667 -0.0942
10 -1 0 1.7899 0.0142
10 -1 1 1.8960 -0.0088
10 -1 2 1.8654 -0.0376
10 -1 3 1.6344 -0.0556
10 -1 4 1.2798 -0.0496
10 -1 5 0.9894 -0.0178
10 -1 6 0.9394 0.0276
10 -1 7 1.1611 0.0661
10 -1 8 1.4928 0.0793
10 -1 9 1.6626 0.0611
10 -1 10 1.4543 0.0209
10 -1 11 0.8500 -0.0214
10 -1 12 0.0528 -0.0454
10 -1 13 -0.6290 -0.0400
10 -1 14 -0.9606 -0.0064
10 -1 15 -0.9064 0.0449
10 -1 16 -0.6275 0.1009
10 0 0 1.4952 0.0382
10 0 1 1.5521 0.0446
10 0 2 1.5733 0.0397
10 0 3 1.6620 0.0285
10 0 4 1.8044 0.0175
10 0 5 1.8982 0.0109
10 0 6 1.8554 0.0084
10 0 7 1.6896 0.0071
10 0 8 1.5185 0.0051
10 0 9 1.4766 0.0041
10 0 10 1.6034 0.0084
10 0 11 1.7929 0.0206
10 0 12 1.8462 0.0376
10 0 13 1.5922 0.0502
10 0 14 0.9997 0.0467
10 0 15 0.2055 0.0204
10 0 16 -0.5549 -0.0255
10 0 17 -1.0679 -0.0771
10 1 0 -0.1954 -0.0132
10 1 1 -0.7495 -0.0133
10 1 2 -0.6932 -0.0191
10 1 3 -0.0230 -0.0272
10 1 4 1.0028 -0.0307
10 1 5 1.9586 -0.0252
10 1 6 2.4362 -0.0124
10 1 7 2.2343 0.0005
10 1 8 1.4511 0.0056
10 1 9 0.4262 0.0001
10 1 10 -0.4388 -0.0123
10 1 11 -0.8764 -0.0239
10 1 12 -0.8548 -0.0291
10 1 13 -0.5341 -0.0275
10 1 14 -0.1211 -0.0234
10 1 15 0.2723 -0.0202
10 1 16 0.6713 -0.0162
10 1 17 1.1613 -0.0039
10 2 0 -0.5371 0.0554
10 2 1 -1.1681 0.0358
10 2 2 -2.1500 0.0076
10 2 3 -3.1903 -0.0141
10 2 4 -3.8537 -0.0180
10 2 5 -3.8132 -0.0038
10 2 6 -3.0606 0.0178
10 2 7 -1.9291 0.0299
10 2 8 -0.9004 0.0207
10 2 9 -0.3151 -0.0095
10 2 10 -0.1753 -0.0462
10 2 11 -0.1714 -0.0691
10 2 12 0.0874 -0.0633
10 2 13 0.7924 -0.0295
10 2 14 1.7938 0.0157
10 2 15 2.6866 0.0485
10 2 16 3.0616 0.0523
10 2 17 2.7525 0.0272
10 3 0 1.2419 -0.0237
10 3 1 -0.3031 -0.0284
10 3 2 -1.7354 -0.0269
10 3 3 -2.6503 -0.0199
10 3 4 -2.8983 -0.0105
10 3 5 -2.6105 -0.0022
10 3 6 -2.1093 0.0020
10 3 7 -1.7518 0.0018
10 3 8 -1.7725 -0.0005
10 3 9 -2.1848 -0.0013
10 3 10 -2.7835 0.0024
10 3 11 -3.2496 0.0105
10 3 12 -3.3146 0.0194
10 3 13 -2.9031 0.0224
10 3 14 -2.1743 0.0118
10 3 15 -1.4349 -0.0183
10 3 16 -0.9665 -0.0700
10 3 17 -0.8691 -0.1394
10 4 0 1.4493 -0.0048
10 4 1 0.3895 -0.0157
10 4 2 -0.4359 -0.0135
10 4 3 -1.0660 0.0018
10 4 4 -1.5775 0.0248
10 4 5 -1.9753 0.0460
10 4 6 -2.1649 0.0550
10 4 7 -2.0368 0.0459
10 4 8 -1.5976 0.0212
10 4 9 -1.0412 -0.0091
10 4 10 -0.6820 -0.0330
10 4 11 -0.7747 -0.0430
10 4 12 -1.3312 -0.0403
10 4 13 -2.0638 -0.0327
10 4 14 -2.5101 -0.0277
10 4 15 -2.2781 -0.0259
10 4 16 -1.2711 -0.0202
10 4 17 0.2430 -0.0015
10 5 0 3.7055 -0.0178
10 5 1 3.2282 -0.0378
10 5 2 2.1631 -0.0565
10 5 3 0.6781 -0.0618
10 5 4 -0.8348 -0.0475
10 5 5 -1.9179 -0.0175
10 5 6 -2.2491 0.0145
10 5 7 -1.7836 0.0317
10 5 8 -0.7690 0.0246
10 5 9 0.3727 -0.0021
10 5 10 1.2325 -0.0301
10 5 11 1.5809 -0.0381
10 5 12 1.4375 -0.0156
10 5 13 1.0226 0.0290
10 5 14 0.6245 0.0724
10 5 15 0.4565 0.0914
10 5 16 0.5693 0.0788
10 5 17 0.8529 0.0510
10 6 0 -1.4153 -0.0567
10 6 1 -2.3927 -0.0223
10 6 2 -2.4284 0.0203
10 6 3 -1.6427 0.0515
10 6 4 -0.5021 0.0558
10 6 5 0.4442 0.0310
10 6 6 0.8394 -0.0118
10 6 7 0.6704 -0.0544
10 6 8 0.2340 -0.0810
10 6 9 -0.0478 -0.0848
10 6 10 0.1399 -0.0677
10 6 11 0.8403 -0.0358
10 6 12 1.8025 0.0046
10 6 13 2.6044 0.0469
10 6 14 2.8573 0.0817
10 6 15 2.3941 0.0956
10 6 16 1.3499 0.0748
10 6 17 0.0983 0.0135
10 7 0 -3.8386 0.0377
10 7 1 -4.7032 0.0398
10 7 2 -4.7561 0.0323
10 7 3 -4.2687 0.0171
10 7 4 -3.6468 -0.0027
10 7 5 -3.1758 -0.0207
10 7 6 -2.8903 -0.0278
10 7 7 -2.6292 -0.0149
10 7 8 -2.2080 0.0213
10 7 9 -1.5702 0.0730
10 7 10 -0.8126 0.1218
10 7 11 -0.0854 0.1453
10 7 12 0.5406 0.1278
10 7 13 1.1285 0.0691
10 7 14 1.8079 -0.0151
10 7 15 2.6395 -0.1010
10 7 16 3.5184 -0.1681
10 8 0 -1.5034 0.0274
10 8 1 -3.4917 0.0571
10 8 2 -5.3564 0.0785
10 8 3 -6.7702 0.0831
10 8 4 -7.5461 0.0705
10 8 5 -7.6397 0.0479
10 8 6 -7.1221 0.0255
10 8 7 -6.1534 0.0120
10 8 8 -4.9636 0.0107
10 8 9 -3.8179 0.0195
10 8 10 -2.9495 0.0314
10 8 11 -2.4742 0.0372
10 8 12 -2.3325 0.0295
10 8 13 -2.3090 0.0058
10 8 14 -2.1389 -0.0286
10 8 15 -1.6517 -0.0603
10 9 0 0.5171 -0.0432
10 9 1 0.6853 -0.0030
10 9 2 1.2216 0.0476
10 9 3 1.8109 0.0799
10 9 4 2.0821 0.0757
10 9 5 1.7856 0.0392
10 9 6 0.9159 -0.0059
10 9 7 -0.2845 -0.0309
10 9 8 -1.4396 -0.0203
10 9 9 -2.2110 0.0182
10 9 10 -2.4392 0.0579
10 9 11 -2.1883 0.0698
10 9 12 -1.6848 0.0393
10 9 13 -1.1954 -0.0240
10 9 14 -0.9106 -0.0929
10 10 0 1.2291 -0.0214
10 10 1 2.9035 -0.0179
10 10 2 4.3390 -0.0122
10 10 3 4.9014 -0.0038
10 10 4 4.2944 0.0045
10 10 5 2.6691 0.0106
10 10 6 0.5180 0.0158
10 10 7 -1.5653 0.0238
10 10 8 -3.1238 0.0355
10 10 9 -3.9558 0.0436
10 10 10 -4.0882 0.0347
10 10 11 -3.6621 -0.0024
10 10 12 -2.8271 -0.0656
10 10 13 -1.7073 -0.1350
10 11 0 -2.2704 -0.0678
10 11 1 -2.5552 -0.0791
10 11 2 -2.2554 -0.0738
10 11 3 -1.6319 -0.0595
10 11 4 -1.0121 -0.0406
10 11 5 -0.6350 -0.0181
10 11 6 -0.5731 0.0076
10 11 7 -0.7526 0.0336
10 11 8 -1.0320 0.0532
10 11 9 -1.2808 0.0594
10 11 10 -1.4157 0.0479
10 11 11 -1.3937 0.0213
10 12 0 -0.9629 0.1187
10 12 1 -0.3410 0.0673
10 12 2 -0.0713 0.0236
10 12 3 -0.3257 -0.0094
10 12 4 -0.9873 -0.0312
10 12 5 -1.6990 -0.0375
10 12 6 -2.0610 -0.0196
10 12 7 -1.8600 0.0263
10 12 8 -1.1939 0.0907
10 12 9 -0.4132 0.1486
11 -7 0 0.1532 0.0619
11 -7 1 -0.3990 0.0633
11 -7 2 -0.5545 0.0499
11 -7 3 -0.2226 0.0269
11 -7 4 0.4193 0.0082
11 -6 0 -0.7526 -0.0038
11 -6 1 -0.9817 -0.0232
11 -6 2 -1.4554 -0.0283
11 -6 3 -1.7987 -0.0181
11 -6 4 -1.7569 0.0031
11 -6 5 -1.3212 0.0272
11 -6 6 -0.6950 0.0452
11 -6 7 -0.1420 0.0491
11 -5 0 3.4889 0.0401
11 -5 1 3.4503 0.0074
11 -5 2 3.2421 -0.0118
11 -5 3 2.8096 -0.0059
11 -5 4 2.2458 0.0273
11 -5 5 1.7268 0.0760
11 -5 6 1.3859 0.1179
11 -5 7 1.2199 0.1308
11 -5 8 1.0978 0.1051
11 -5 9 0.8629 0.0507
11 -4 0 2.1493 0.0289
11 -4 1 2.4429 0.0412
11 -4 2 2.7262 0.0285
11 -4 3 2.6914 -0.0075
11 -4 4 2.1794 -0.0482
11 -4 5 1.3127 -0.0700
11 -4 6 0.4456 -0.0596
11 -4 7 -0.0376 -0.0227
11 -4 8 0.0563 0.0209
11 -4 9 0.6323 0.0522
11 -4 10 1.3887 0.0658
11 -4 11 2.0084 0.0726
11 -3 0 1.6748 0.0331
11 -3 1 1.8088 0.0403
11 -3 2 2.0068 0.0376
11 -3 3 2.1107 0.0234
11 -3 4 1.9229 0.0020
11 -3 5 1.3511 -0.0168
11 -3 6 0.5103 -0.0234
11 -3 7 -0.3033 -0.0158
11 -3 8 -0.7716 -0.0035
11 -3 9 -0.7527 -0.0024
11 -3 10 -0.3870 -0.0250
11 -3 11 -0.0314 -0.0709
11 -3 12 -0.0512 -0.1249
11 -2 0 -0.6876 0.0105
11 -2 1 0.0576 -0.0115
11 -2 2 0.7451 -0.0135
11 -2 3 1.2925 0.0030
11 -2 4 1.6326 0.0272
11 -2 5 1.6996 0.0451
11 -2 6 1.4687 0.0468
11 -2 7 1.0193 0.0319
11 -2 8 0.5573 0.0093
11 -2 9 0.3422 -0.0073
11 -2 10 0.5407 -0.0063
11 -2 11 1.0956 0.0173
11 -2 12 1.7096 0.0599
11 -2 13 1.9812 0.1109
11 -1 0 -3.9829 -0.0350
11 -1 1 -3.9913 -0.0001
11 -1 2 -3.2431 0.0177
11 -1 3 -1.8823 0.0172
11 -1 4 -0.2105 0.0085
11 -1 5 1.3945 0.0045
11 -1 6 2.5695 0.0124
11 -1 7 3.0645 0.0289
11 -1 8 2.8289 0.0440
11 -1 9 2.0477 0.0472
11 -1 10 1.0880 0.0335
11 -1 11 0.3551 0.0049
11 -1 12 0.1145 -0.0319
11 -1 13 0.3741 -0.0702
11 -1 14 0.8959 -0.1053
11 0 0 1.1081 0.0049
11 0 1 0.9507 0.0040
11 0 2 0.7308 -0.0095
11 0 3 0.4833 -0.0276
11 0 4 0.3264 -0.0378
11 0 5 0.4101 -0.0315
11 0 6 0.8108 -0.0105
11 0 7 1.4403 0.0134
11 0 8 2.0451 0.0255
11 0 9 2.3194 0.0180
11 0 10 2.0753 -0.0041
11 0 11 1.3657 -0.0248
11 0 12 0.4735 -0.0259
11 0 13 -0.2346 0.0034
11 0 14 -0.5063 0.0599
11 0 15 -0.3308 0.1283
11 1 0 2.9368 0.0197
11 1 1 3.1300 0.0482
11 1 2 2.8715 0.0696
11 1 3 2.5015 0.0808
11 1 4 2.2894 0.0809
11 1 5 2.3067 0.0710
11 1 6 2.4453 0.0540
11 1 7 2.5356 0.0344
11 1 8 2.4692 0.0176
11 1 9 2.2459 0.0091
11 1 10 1.9375 0.0120
11 1 11 1.6139 0.0243
11 1 12 1.2950 0.0376
11 1 13 0.9577 0.0395
11 1 14 0.5815 0.0183
11 1 15 0.1897 -0.0302
11 2 0 -0.6871 -0.0006
11 2 1 -1.3587 -0.0092
11 2 2 -1.5200 -0.0257
11 2 3 -1.1112 -0.0455
11 2 4 -0.2824 -0.0582
11 2 5 0.6541 -0.0544
11 2 6 1.3504 -0.0332
11 2 7 1.5731 -0.0041
11 2 8 1.2950 0.0178
11 2 9 0.6781 0.0196
11 2 10 -0.0379 -0.0012
11 2 11 -0.6696 -0.0365
11 2 12 -1.1609 -0.0719
11 2 13 -1.5535 -0.0950
11 2 14 -1.8887 -0.1000
11 2 15 -2.1239 -0.0881
11 3 0 1.5633 0.0867
11 3 1 1.3754 0.0694
11 3 2 0.5088 0.0327
11 3 3 -0.8574 -0.0053
11 3 4 -2.2277 -0.0257
11 3 5 -3.0605 -0.0198
11 3 6 -3.0717 0.0055
11 3 7 -2.3819 0.0316
11 3 8 -1.4168 0.0398
11 3 9 -0.6312 0.0235
11 3 10 -0.2407 -0.0062
11 3 11 -0.1322 -0.0260
11 3 12 0.0036 -0.0144
11 3 13 0.4201 0.0335
11 3 14 1.1204 0.1010
11 3 15 1.8484 0.1568
11 3 16 2.2583 0.1720
11 4 0 4.7900 -0.0085
11 4 1 3.3866 -0.0155
11 4 2 1.5868 -0.0100
11 4 3 -0.0245 0.0044
11 4 4 -1.0351 0.0211
11 4 5 -1.3533 0.0335
11 4 6 -1.2077 0.0379
11 4 7 -1.0090 0.0350
11 4 8 -1.1390 0.0286
11 4 9 -1.7599 0.0233
11 4 10 -2.7361 0.0216
11 4 11 -3.7050 0.0222
11 4 12 -4.2684 0.0201
11 4 13 -4.2029 0.0086
11 4 14 -3.5757 -0.0183
11 4 15 -2.6993 -0.0624
11 4 16 -1.9513 -0.1203
11 5 0 3.0796 -0.0220
11 5 1 2.6506 -0.0226
11 5 2 2.1774 -0.0162
11 5 3 1.5603 -0.0005
11 5 4 0.7597 0.0242
11 5 5 -0.1079 0.0531
11 5 6 -0.7802 0.0769
11 5 7 -0.9864 0.0861
11 5 8 -0.6343 0.0748
11 5 9 0.0810 0.0451
11 5 10 0.7413 0.0058
11 5 11 0.9243 -0.0315
11 5 12 0.4519 -0.0586
11 5 13 -0.4876 -0.0735
11 5 14 -1.4284 -0.0795
11 5 15 -1.8810 -0.0806
11 6 0 4.4447 0.0256
11 6 1 5.2391 0.0118
11 6 2 5.2455 -0.0158
11 6 3 4.3451 -0.0447
11 6 4 2.7635 -0.0613
11 6 5 0.9785 -0.0597
11 6 6 -0.4824 -0.0462
11 6 7 -1.2587 -0.0360
11 6 8 -1.2915 -0.0438
11 6 9 -0.8162 -0.0718
11 6 10 -0.2269 -0.1059
11 6 11 0.1199 -0.1212
11 6 12 0.0643 -0.0975
11 6 13 -0.3077 -0.0323
11 6 14 -0.7402 0.0550
11 6 15 -0.9625 0.1334
11 7 0 0.9974 -0.0562
11 7 1 -0.5637 -0.0025
11 7 2 -1.2446 0.0726
11 7 3 -0.9837 0.1376
11 7 4 -0.1651 0.1646
11 7 5 0.6147 0.1429
11 7 6 0.8632 0.0840
11 7 7 0.4290 0.0145
11 7 8 -0.4488 -0.0386
11 7 9 -1.2879 -0.0595
11 7 10 -1.6185 -0.0485
11 7 11 -1.2157 -0.0170
11 7 12 -0.2003 0.0212
11 7 13 1.0307 0.0559
11 7 14 1.9970 0.0809
11 8 0 -2.6655 0.0484
11 8 1 -3.5781 0.0601
11 8 2 -3.9009 0.0647
11 8 3 -3.7661 0.0588
11 8 4 -3.4927 0.0403
11 8 5 -3.3584 0.0123
11 8 6 -3.4389 -0.0155
11 8 7 -3.6038 -0.0298
11 8 8 -3.6445 -0.0202
11 8 9 -3.4239 0.0125
11 8 10 -2.9416 0.0538
11 8 11 -2.2847 0.0813
11 8 12 -1.5275 0.0751
11 8 13 -0.6724 0.0287
11 9 0 -0.4210 -0.0739
11 9 1 -1.5106 -0.0516
11 9 2 -2.5891 -0.0234
11 9 3 -3.4285 0.0007
11 9 4 -3.9437 0.0147
11 9 5 -4.1686 0.0176
11 9 6 -4.1875 0.0127
11 9 7 -4.0804 0.0049
11 9 8 -3.9143 -0.0015
11 9 9 -3.7600 -0.0040
11 9 10 -3.6946 -0.0023
11 9 11 -3.7630 0.0015
11 9 12 -3.9227 0.0039
11 10 0 2.4790 -0.0030
11 10 1 2.8029 -0.0166
11 10 2 3.4997 -0.0096
11 10 3 4.3038 -0.0040
11 10 4 4.8353 -0.0191
11 10 5 4.7793 -0.0563
11 10 6 4.0404 -0.0947
11 10 7 2.7912 -0.1029
11 10 8 1.3869 -0.0597
11 10 9 0.1979 0.0303
11 10 10 -0.5496 0.1348
11 10 11 -0.8407 0.2092
11 11 0 -0.1495 0.0075
11 11 1 1.8327 -0.0235
11 11 2 3.7954 -0.0411
11 11 3 5.1103 -0.0389
11 11 4 5.3877 -0.0244
11 11 5 4.6330 -0.0105
11 11 6 3.2054 -0.0054
11 11 7 1.6207 -0.0068
11 11 8 0.3154 -0.0072
12 -6 0 -1.1545 0.0233
12 -5 0 -1.9243 0.0796
12 -5 1 -1.5389 0.0713
12 -5 2 -1.5059 0.0642
12 -5 3 -1.6289 0.0551
12 -5 4 -1.6892 0.0374
12 -5 5 -1.5697 0.0077
12 -4 0 2.6303 -0.0133
12 -4 1 2.6897 -0.0599
12 -4 2 2.6178 -0.0931
12 -4 3 2.2453 -0.0984
12 -4 4 1.5902 -0.0710
12 -4 5 0.8448 -0.0214
12 -4 6 0.2536 0.0267
12 -4 7 -0.0306 0.0462
12 -3 0 0.2061 -0.0256
12 -3 1 0.0178 0.0303
12 -3 2 0.2951 0.0628
12 -3 3 0.7415 0.0498
12 -3 4 1.0266 -0.0002
12 -3 5 1.0052 -0.0535
12 -3 6 0.7921 -0.0722
12 -3 7 0.6543 -0.0376
12 -3 8 0.8071 0.0400
12 -3 9 1.2604 0.1290
12 -2 0 2.0308 0.0236
12 -2 1 1.6226 0.0239
12 -2 2 1.4234 0.0343
12 -2 3 1.3772 0.0406
12 -2 4 1.2858 0.0305
12 -2 5 0.9579 0.0030
12 -2 6 0.3628 -0.0315
12 -2 7 -0.3229 -0.0594
12 -2 8 -0.8177 -0.0751
12 -2 9 -0.9220 -0.0842
12 -2 10 -0.6629 -0.0990
12 -1 0 0.0394 -0.0184
12 -1 1 1.0242 -0.0530
12 -1 2 1.7697 -0.0625
12 -1 3 2.2910 -0.0429
12 -1 4 2.6267 -0.0062
12 -1 5 2.7621 0.0274
12 -1 6 2.6397 0.0411
12 -1 7 2.2465 0.0303
12 -1 8 1.6980 0.0040
12 -1 9 1.2309 -0.0218
12 -1 10 1.0859 -0.0323
12 -1 11 1.3506 -0.0213
12 0 0 -4.4884 0.0180
12 0 1 -5.2817 0.0670
12 0 2 -5.2004 0.0888
12 0 3 -4.1986 0.0743
12 0 4 -2.5029 0.0348
12 0 5 -0.5428 -0.0049
12 0 6 1.1792 -0.0217
12 0 7 2.2466 -0.0067
12 0 8 2.4693 0.0303
12 0 9 1.9485 0.0663
12 0 10 1.0272 0.0779
12 0 11 0.1386 0.0521
12 0 12 -0.3821 -0.0073
12 1 0 2.7038 -0.0262
12 1 1 2.6048 -0.0003
12 1 2 2.2494 0.0178
12 1 3 1.7300 0.0217
12 1 4 1.2591 0.0141
12 1 5 1.0763 0.0029
12 1 6 1.3085 -0.0065
12 1 7 1.8677 -0.0146
12 1 8 2.4636 -0.0267
12 1 9 2.7419 -0.0463
12 1 10 2.4793 -0.0694
12 1 11 1.7187 -0.0839
12 1 12 0.7565 -0.0745
12 1 13 -0.0155 -0.0319
12 2 0 3.2560 -0.0026
12 2 1 3.6643 0.0263
12 2 2 3.1468 0.0519
12 2 3 2.1524 0.0685
12 2 4 1.2372 0.0707
12 2 5 0.7766 0.0567
12 2 6 0.8219 0.0304
12 2 7 1.1466 0.0016
12 2 8 1.4189 -0.0177
12 2 9 1.3854 -0.0178
12 2 10 0.9747 0.0030
12 2 11 0.2900 0.0359
12 2 12 -0.4745 0.0636
12 2 13 -1.1341 0.0660
12 3 0 -1.0359 0.0282
12 3 1 -1.3718 0.0227
12 3 2 -1.4475 0.0041
12 3 3 -1.2846 -0.0248
12 3 4 -0.9533 -0.0518
12 3 5 -0.5548 -0.0617
12 3 6 -0.1858 -0.0462
12 3 7 0.0979 -0.0100
12 3 8 0.2956 0.0302
12 3 9 0.4342 0.0547
12 3 10 0.5177 0.0517
12 3 11 0.4897 0.0233
12 3 12 0.2499 -0.0157
12 3 13 -0.2750 -0.0469
12 4 0 1.0784 0.0636
12 4 1 2.1918 0.0555
12 4 2 2.5658 0.0255
12 4 3 1.9935 -0.0125
12 4 4 0.7529 -0.0379
12 4 5 -0.5784 -0.0362
12 4 6 -1.4581 -0.0083
12 4 7 -1.6542 0.0283
12 4 8 -1.3070 0.0503
12 4 9 -0.7671 0.0434
12 4 10 -0.3412 0.0128
12 4 11 -0.1179 -0.0179
12 4 12 0.0275 -0.0197
12 4 13 0.2792 0.0231
12 5 0 6.4117 -0.0165
12 5 1 5.5267 -0.0342
12 5 2 3.9704 -0.0373
12 5 3 2.2865 -0.0268
12 5 4 0.9809 -0.0087
12 5 5 0.3149 0.0096
12 5 6 0.2167 0.0236
12 5 7 0.3500 0.0331
12 5 8 0.3034 0.0406
12 5 9 -0.1871 0.0489
12 5 10 -1.0966 0.0583
12 5 11 -2.1248 0.0654
12 5 12 -2.8600 0.0638
12 5 13 -3.0059 0.0473
12 6 0 2.3561 -0.0440
12 6 1 3.1289 -0.0281
12 6 2 3.7797 -0.0092
12 6 3 4.0043 0.0112
12 6 4 3.6329 0.0333
12 6 5 2.7594 0.0564
12 6 6 1.7332 0.0766
12 6 7 0.9938 0.0862
12 6 8 0.8289 0.0775
12 6 9 1.2029 0.0465
12 6 10 1.7698 -0.0030
12 6 11 2.0741 -0.0602
12 6 12 1.8206 -0.1114
12 6 13 1.0485 -0.1460
12 7 0 2.4866 0.1168
12 7 1 4.4959 0.1104
12 7 2 5.9856 0.0845
12 7 3 6.5196 0.0473
12 7 4 5.9905 0.0129
12 7 5 4.6407 -0.0069
12 7 6 2.9415 -0.0113
12 7 7 1.3883 -0.0116
12 7 8 0.3027 -0.0249
12 7 9 -0.2690 -0.0612
12 7 10 -0.5200 -0.1137
12 7 11 -0.7339 -0.1594
12 7 12 -1.1058 -0.1703
12 8 0 2.4590 -0.0918
12 8 1 0.8022 -0.0565
12 8 2 -0.1464 0.0154
12 8 3 -0.1512 0.0904
12 8 4 0.5553 0.1325
12 8 5 1.4284 0.1219
12 8 6 1.9062 0.0646
12 8 7 1.6888 -0.0119
12 8 8 0.8635 -0.0741
12 8 9 -0.1716 -0.0993
12 8 10 -0.9311 -0.0847
12 8 11 -1.0860 -0.0441
12 9 0 -2.1203 0.0270
12 9 1 -2.7042 0.0270
12 9 2 -2.9297 0.0264
12 9 3 -2.8240 0.0212
12 9 4 -2.5878 0.0042
12 9 5 -2.4367 -0.0290
12 9 6 -2.4606 -0.0745
12 9 7 -2.5918 -0.1187
12 9 8 -2.6831 -0.1452
12 9 9 -2.6232 -0.1443
12 10 0 1.7038 -0.1336
12 10 1 1.3802 -0.1337
12 10 2 1.0845 -0.1201
12 10 3 0.9466 -0.0931
12 10 4 0.9416 -0.0570
12 10 5 0.9340 -0.0186
12 10 6 0.7854 0.0143
12 10 7 0.4443 0.0359
13 -4 0 -1.6344 0.0684
13 -3 0 2.5698 -0.0481
13 -3 1 3.0895 -0.0920
13 -3 2 3.4211 -0.1294
13 -3 3 3.2972 -0.1435
13 -3 4 2.6576 -0.1272
13 -2 0 -1.7022 -0.0584
13 -2 1 -2.1857 0.0223
13 -2 2 -1.9117 0.0986
13 -2 3 -1.0866 0.1216
13 -2 4 -0.1251 0.0764
13 -2 5 0.6064 -0.0092
13 -2 6 0.9734 -0.0818
13 -1 0 2.2781 -0.0791
13 -1 1 1.5138 -0.0873
13 -1 2 1.0349 -0.0495
13 -1 3 0.9473 0.0117
13 -1 4 1.1125 0.0634
13 -1 5 1.2635 0.0806
13 -1 6 1.1906 0.0590
13 -1 7 0.8707 0.0118
13 -1 8 0.4601 -0.0424
13 0 0 0.4572 0.0000
13 0 1 1.1048 -0.0472
13 0 2 1.3098 -0.0748
13 0 3 1.2432 -0.0694
13 0 4 1.1484 -0.0380
13 0 5 1.1640 -0.0019
13 0 6 1.2535 0.0180
13 0 7 1.2767 0.0140
13 0 8 1.1345 -0.0055
13 0 9 0.8676 -0.0232
13 1 0 -1.8432 0.0532
13 1 1 -3.3251 0.1076
13 1 2 -4.2723 0.1341
13 1 3 -4.4437 0.1135
13 1 4 -3.8364 0.0513
13 1 5 -2.6790 -0.0249
13 1 6 -1.3505 -0.0804
13 1 7 -0.2435 -0.0916
13 1 8 0.3794 -0.0587
13 1 9 0.4752 -0.0055
13 1 10 0.2114 0.0332
13 2 0 3.0905 -0.1067
13 2 1 3.5860 -0.0726
13 2 2 3.6653 -0.0264
13 2 3 3.2802 0.0135
13 2 4 2.6042 0.0368
13 2 5 1.9486 0.0423
13 2 6 1.5877 0.0335
13 2 7 1.5974 0.0141
13 2 8 1.8104 -0.0148
13 2 9 1.9210 -0.0519
13 2 10 1.6780 -0.0915
13 3 0 3.0193 0.0483
13 3 1 3.7354 0.0605
13 3 2 3.3288 0.0612
13 3 3 2.1072 0.0489
13 3 4 0.6870 0.0217
13 3 5 -0.3444 -0.0193
13 3 6 -0.7017 -0.0662
13 3 7 -0.4844 -0.1045
13 3 8 -0.0587 -0.1166
13 3 9 0.1696 -0.0900
13 3 10 -0.0375 -0.0247
13 4 0 -2.8747 0.0221
13 4 1 -2.2412 0.0350
13 4 2 -1.4156 0.0325
13 4 3 -0.6822 0.0094
13 4 4 -0.2374 -0.0266
13 4 5 -0.1242 -0.0585
13 4 6 -0.2320 -0.0703
13 4 7 -0.3583 -0.0564
13 4 8 -0.3062 -0.0257
13 4 9 0.0189 0.0039
13 4 10 0.5538 0.0162
13 5 0 -2.7460 0.0125
13 5 1 -0.6236 0.0190
13 5 2 1.2013 0.0041
13 5 3 2.0893 -0.0245
13 5 4 1.9074 -0.0485
13 5 5 1.0067 -0.0500
13 5 6 -0.0397 -0.0239
13 5 7 -0.7613 0.0170
13 5 8 -0.9896 0.0485
13 5 9 -0.8480 0.0494
13 5 10 -0.5847 0.0168
13 6 0 5.9246 0.0034
13 6 1 5.6229 -0.0310
13 6 2 4.7183 -0.0589
13 6 3 3.5529 -0.0752
13 6 4 2.5327 -0.0800
13 6 5 1.9465 -0.0763
13 6 6 1.8403 -0.0662
13 6 7 2.0095 -0.0500
13 6 8 2.1181 -0.0271
13 6 9 1.8863 0.0016
13 7 0 -0.9560 -0.0799
13 7 1 0.4716 -0.0641
13 7 2 2.0263 -0.0391
13 7 3 3.2266 -0.0123
13 7 4 3.7064 0.0118
13 7 5 3.3988 0.0322
13 7 6 2.5760 0.0482
13 7 7 1.7065 0.0564
13 7 8 1.2030 0.0501
13 8 0 0.5350 0.1198
13 8 1 2.7420 0.1198
13 8 2 4.8938 0.1013
13 8 3 6.4532 0.0692
13 8 4 7.0763 0.0364
13 8 5 6.7196 0.0170
13 8 6 5.6284 0.0175
13 8 7 4.2131 0.0306
13 9 0 1.0965 -0.1052
13 9 1 -0.2781 -0.1202
13 9 2 -1.1404 -0.0975
13 9 3 -1.1550 -0.0609
14 -1 0 -2.5440 -0.1579
14 0 0 1.3095 -0.1431
14 0 1 0.4697 -0.1904
14 0 2 -0.0477 -0.1613
14 0 3 -0.0395 -0.0692
14 1 0 0.9532 0.0707
14 1 1 0.8677 0.0249
14 1 2 0.2705 -0.0209
14 1 3 -0.5761 -0.0470
14 1 4 -1.2769 -0.0522
14 1 5 -1.5444 -0.0507
14 2 0 0.8891 -0.0278
14 2 1 -0.5657 0.0423
14 2 2 -1.8890 0.0967
14 2 3 -2.8128 0.1057
14 2 4 -3.1953 0.0616
14 2 5 -3.0538 -0.0171
14 3 0 1.0438 -0.1556
14 3 1 2.0390 -0.1361
14 3 2 2.8066 -0.0857
14 3 3 3.0343 -0.0260
14 3 4 2.6782 0.0246
14 3 5 1.9639 0.0556
14 3 6 1.2351 0.0646
14 4 0 2.4937 0.1475
14 4 1 3.5876 0.1623
14 4 2 3.7809 0.1480
14 4 3 3.0861 0.1065
14 4 4 1.9083 0.0413
14 4 5 0.7947 -0.0404
14 5 0 -6.1409 0.0133
14 5 1 -4.9123 0.0363
14 5 2 -3.2462 0.0492
14 5 3 -1.6523 0.0390
14 5 4 -0.5549 0.0047
14 5 5 -0.1373 -0.0417
14 6 0 -4.9222 -0.0435
14 6 1 -2.8437 -0.0201
14 6 2 -0.5125 -0.0210
14 6 3 1.2519 -0.0432
0 0 0 0.0 0.0
;
loop_
_refln_index_h
_refln_index_k
_refln_index_l
_refln_F_squared_meas
_refln_F_squared_sigma
-13 -8 9 149.84 50.1
-13 -8 10 -50.43 34.98
-13 -7 10 109.15 40.13
-13 -7 11 28.04 23.05
-13 -7 12 31.78 29.22
-12 -10 5 66.82 43.52
-12 -10 6 139.99 54.96
-12 -10 7 154.27 56.54
-12 -9 6 290.12 62.94
-12 -9 7 146.99 52.33
-12 -9 8 241.86 58.24
-12 -9 9 18.87 33.54
-12 -9 10 116.97 36.69
-12 -8 6 42.13 35.18
-12 -8 7 47.09 24.65
-12 -8 8 30.65 32.26
-12 -8 9 144.48 46.9
-12 -8 10 19.38 20.21
-12 -8 11 42.59 35.01
-12 -8 12 183.13 52.36
-12 -8 13 -69.79 42.01
-12 -7 7 0.34 23.22
-12 -7 8 254.72 57.24
-12 -7 9 108.73 42.52
-12 -7 10 70.95 37.51
-12 -7 11 167.19 48.45
-12 -7 12 -4.69 24.2
-12 -7 13 10.54 20.58
-12 -7 14 -7.89 26.53
-12 -6 8 83.96 37.14
-12 -6 9 71.04 30.79
-12 -6 10 134.65 43.33
-12 -6 11 -22.16 20.31
-12 -6 12 268.3 58.3
-12 -6 13 76.36 38.29
-12 -5 10 -17.45 19.43
-12 -5 11 194 48.84
-11 -12 2 259.52 62.63
-11 -11 3 167.15 45.62
-11 -11 4 70.8 37.09
-11 -11 5 117.23 48.48
-11 -11 6 146.56 55.01
-11 -11 7 11.19 24.96
-11 -10 3 46.47 33.73
-11 -10 4 127.16 50.22
-11 -10 5 361.45 71.27
-11 -10 6 62.31 34.19
-11 -10 7 493.76 82.84
-11 -10 8 19.15 24.69
-11 -10 9 225.33 57.24
-11 -10 10 72.97 39.55
-11 -9 3 68.32 38.42
-11 -9 4 315.24 64.74
-11 -9 5 30.27 31.02
-11 -9 6 141.55 40.9
-11 -9 7 23.92 25.82
-11 -9 8 48.7 35.56
-11 -9 9 174.77 56.57
-11 -9 10 46.48 36.23
-11 -9 11 205.2 60.34
-11 -9 12 59.41 35.46
-11 -9 13 202.52 60.97
-11 -8 4 -13.04 22.19
-11 -8 5 21.56 19.58
-11 -8 6 -12.76 25.04
-11 -8 7 99.15 39.05
-11 -8 8 191.87 53.05
-11 -8 9 201.93 56.44
-11 -8 10 106.43 43.4
-11 -8 11 -35.4 27.54
-11 -8 12 107.62 41.77
-11 -8 13 83.39 36.4
-11 -8 14 96.56 46.58
-11 -8 15 138.21 48.01
-11 -7 5 81.26 34.99
-11 -7 6 161.41 46.96
-11 -7 7 173.07 45.84
-11 -7 8 9.96 19.74
-11 -7 9 205.53 53.11
-11 -7 10 58.11 33.39
-11 -7 11 299.47 65.35
-11 -7 12 112.06 50.3
-11 -7 13 146.15 47.15
-11 -7 14 204.57 56.61
-11 -7 15 59.41 38.23
-11 -7 16 70.93 36.36
-11 -6 6 471.23 71.63
-11 -6 7 27.06 28.16
-11 -6 8 199.23 48.04
-11 -6 9 -0.03 20.22
-11 -6 10 230.3 53.12
-11 -6 11 271.92 57.22
-11 -6 12 167.03 46
-11 -6 13 341.23 66.46
-11 -6 14 -0.36 26.09
-11 -6 15 386.12 72.39
-11 -5 7 285.02 53.37
-11 -5 8 155.15 42.52
-11 -5 9 368.97 63.15
-11 -5 10 364.89 60.86
-11 -5 11 11.55 20.4
-11 -5 12 256.04 56
-11 -5 13 -8.17 23.18
-11 -5 14 122.03 39.4
-11 -4 9 394.81 60.98
-11 -4 10 26.48 22.63
-11 -4 11 237.98 46.98
-11 -4 12 112.91 39.94
-11 -3 11 62.93 28.02
-10 -13 1 183.22 59.3
-10 -12 1 109.92 43.87
-10 -12 2 152.05 51.67
-10 -12 3 21.39 33.65
-10 -12 4 18.15 26.63
-10 -12 5 156.82 53.4
-10 -12 6 -65.12 43.83
-10 -11 1 281.81 61.89
-10 -11 2 323.01 70.33
-10 -11 3 188.72 52.66
-10 -11 4 339.16 67.88
-10 -11 5 11.92 21.83
-10 -11 6 277.34 65.85
-10 -11 7 89.98 40.32
-10 -11 8 169.85 54.34
-10 -11 9 35.94 37.66
-10 -10 1 328.64 64.83
-10 -10 2 94.8 44.77
-10 -10 3 467.58 77.82
-10 -10 4 16.37 23.2
-10 -10 5 295.14 65.57
-10 -10 6 88.68 41.78
-10 -10 7 178.15 51.85
-10 -10 8 217.3 61.26
-10 -10 9 66.56 39.11
-10 -10 10 313.53 70.7
-10 -10 11 37.62 28.16
-10 -10 12 235.67 65.4
-10 -9 2 300.67 60.62
-10 -9 3 64.63 37.44
-10 -9 4 58.24 22.95
-10 -9 5 33.4 23.22
-10 -9 6 31.72 26.82
-10 -9 7 136.79 47.06
-10 -9 8 8.04 23.92
-10 -9 9 396.97 72
-10 -9 10 22.65 23.72
-10 -9 11 426.88 76.85
-10 -9 12 74.6 40.67
-10 -9 13 115.19 43.66
-10 -9 14 127.6 45.67
-10 -8 2 157.14 46.31
-10 -8 3 143.95 46.38
-10 -8 4 261.75 55.47
-10 -8 5 124.23 42.65
-10 -8 6 506.19 74.55
-10 -8 7 25.26 29.36
-10 -8 8 277.4 57.18
-10 -8 9 170.81 50.36
-10 -8 10 80.28 40.98
-10 -8 11 469.66 76.08
-10 -8 12 158.83 50.19
-10 -8 13 307.78 64.76
-10 -8 14 20.93 26.05
-10 -8 15 185.2 52.77
-10 -8 16 117.35 47.39
-10 -7 3 316.9 57.08
-10 -7 4 41.89 26.88
-10 -7 5 419.4 63.32
-10 -7 6 48.07 25.69
-10 -7 7 212.26 49.48
-10 -7 8 156.82 46.47
-10 -7 9 360.2 66.35
-10 -7 10 119.07 40.99
-10 -7 11 26.9 20.63
-10 -7 12 348.33 67.34
-10 -7 13 14.31 23.79
-10 -7 14 185.56 50.34
-10 -7 15 196.25 51.71
-10 -7 16 54.28 35.26
-10 -7 17 39.4 32.72
-10 -7 18 6.73 34.37
-10 -6 4 1193.73 104.44
-10 -6 5 58.81 36.79
-10 -6 6 429.12 63.47
-10 -6 7 39.77 25.33
-10 -6 8 133.25 37.55
-10 -6 9 353.26 58.57
-10 -6 10 32.05 20.64
-10 -6 11 459.04 70.27
-10 -6 12 2.89 20.54
-10 -6 13 187.22 49.95
-10 -6 14 156.44 44.11
-10 -6 15 83.25 37.52
-10 -6 16 262.75 62.35
-10 -6 17 83.29 38.48
-10 -5 5 69.32 31.1
-10 -5 6 937.99 91.67
-10 -5 7 86.33 31.96
-10 -5 8 748.96 83.35
-10 -5 9 18.4 24.04
-10 -5 10 312.99 54.87
-10 -5 11 254.84 50.54
-10 -5 12 311.81 58.28
-10 -5 13 269.52 54.73
-10 -5 14 1.92 23.54
-10 -5 15 249.24 52.8
-10 -5 16 54.11 30.21
-10 -4 6 285.88 50.13
-10 -4 7 456.07 62.34
-10 -4 8 45.4 21.83
-10 -4 9 133.82 36.66
-10 -4 10 127.32 34.02
-10 -4 11 75.75 29.38
-10 -4 12 159.47 40.6
-10 -4 13 21.75 22.46
-10 -4 14 485.74 70.42
-10 -3 8 30.31 23.99
-10 -3 9 266.39 45.42
-10 -3 10 46.87 23.68
-10 -3 11 143.58 36.04
-10 -3 12 -9.03 23.3
-10 -3 13 71.62 28.74
-10 -2 10 259.47 45.32
-10 -2 11 38.01 22.67
-9 -14 -1 67.63 36.84
-9 -13 -1 226.96 58.62
-9 -13 0 56.37 34.26
-9 -13 1 167.31 47.74
-9 -13 2 71.76 39.5
-9 -13 3 147.26 51.95
-9 -13 4 96.15 46.31
-9 -13 5 -2.84 31.16
-9 -12 -1 319.56 69.91
-9 -12 0 308.06 69.71
-9 -12 1 420.79 77.18
-9 -12 2 166.55 57.97
-9 -12 3 502.1 82.81
-9 -12 4 33.62 37.8
-9 -12 5 337.08 70.61
-9 -12 6 26.39 23.79
-9 -12 7 84.08 35.62
-9 -12 8 176.9 58.84
-9 -11 -1 49.44 28.92
-9 -11 0 20.03 32
-9 -11 1 174.87 44.27
-9 -11 2 240.91 56.66
-9 -11 3 18.61 26.52
-9 -11 4 194.06 55.38
-9 -11 5 244.47 58.68
-9 -11 6 92.36 38.27
-9 -11 7 213.55 54.09
-9 -11 8 61.84 36.2
-9 -11 9 265.83 65.18
-9 -11 10 2.59 21.98
-9 -11 11 157.52 55.02
-9 -10 0 4.5 21.89
-9 -10 1 474.33 75.05
-9 -10 2 236.94 56.8
-9 -10 3 336.19 67.63
-9 -10 4 168.52 49.73
-9 -10 5 98.33 41.66
-9 -10 6 320.27 62.81
-9 -10 7 3.17 32.93
-9 -10 8 506.95 83.3
-9 -10 9 83.42 41.42
-9 -10 10 173.1 53.16
-9 -10 11 233.92 59.68
-9 -10 12 45.56 37.66
-9 -10 13 45.39 39.74
-9 -9 0 983.32 101.29
-9 -9 1 39.61 28.9
-9 -9 2 57.55 33.87
-9 -9 3 403.51 65.04
-9 -9 4 57.53 32.74
-9 -9 5 476.88 72.65
-9 -9 6 58.18 32.1
-9 -9 7 409.38 67.91
-9 -9 8 -6.59 19.95
-9 -9 9 57.38 33.63
-9 -9 10 123.64 40.86
-9 -9 11 -11 24.99
-9 -9 12 273.11 60.61
-9 -9 13 10.04 23.72
-9 -9 14 270.39 64.97
-9 -9 15 58.68 33.82
-9 -8 1 76.68 33.59
-9 -8 2 355.98 57.83
-9 -8 3 2.94 21.04
-9 -8 4 444.31 66.7
-9 -8 5 29.53 33.76
-9 -8 6 294.19 54.72
-9 -8 7 173.25 46.55
-9 -8 8 69.53 38.16
-9 -8 9 197.9 47.38
-9 -8 10 36.46 28.52
-9 -8 11 60.75 31.7
-9 -8 12 -43.41 29.66
-9 -8 13 23.09 24.81
-9 -8 14 98.06 42.3
-9 -8 15 102.1 38.59
-9 -8 16 80.27 40.91
-9 -8 17 23.66 33.95
-9 -7 1 1141.96 100.49
-9 -7 2 71.1 37.75
-9 -7 3 1173.97 103.13
-9 -7 4 214.51 49.05
-9 -7 5 277.22 52.2
-9 -7 6 334.22 58.66
-9 -7 7 155.93 40.27
-9 -7 8 285.48 55.46
-9 -7 9 39.29 23.65
-9 -7 10 469.38 71.08
-9 -7 11 186.89 49.87
-9 -7 12 155.95 47.15
-9 -7 13 375.89 70.66
-9 -7 14 71.91 38.26
-9 -7 15 176.54 52.85
-9 -7 16 -32.87 35.41
-9 -7 17 109.05 45.28
-9 -7 18 61.17 31.69
-9 -7 19 9.87 34.73
-9 -6 2 345.47 54
-9 -6 3 281.8 52.92
-9 -6 4 138.57 41.44
-9 -6 5 1118.21 97.93
-9 -6 6 150.91 41.38
-9 -6 7 399.23 59.42
-9 -6 8 43.01 28.44
-9 -6 9 305.42 55.63
-9 -6 10 230.52 49.55
-9 -6 11 120.24 39.06
-9 -6 12 448.88 69.04
-9 -6 13 102.81 37.82
-9 -6 14 146.31 43.6
-9 -6 15 12.53 22.39
-9 -6 16 202.42 53.77
-9 -6 17 56.63 37.31
-9 -6 18 43.53 33.59
-9 -6 19 143.62 48.13
-9 -5 3 561.89 70.19
-9 -5 4 2204.39 133.03
-9 -5 5 288.66 53.39
-9 -5 6 718.72 76.07
-9 -5 7 179.25 40.99
-9 -5 8 140.74 35.22
-9 -5 9 254.67 48.68
-9 -5 10 169.71 40
-9 -5 11 386.11 62.96
-9 -5 12 -3 18.52
-9 -5 13 364.69 62.29
-9 -5 14 51.76 26.33
-9 -5 15 206.57 46.71
-9 -5 16 17.57 22.69
-9 -5 17 72.44 33.14
-9 -5 18 -0.03 24.64
-9 -4 4 231.28 44.04
-9 -4 5 781.66 75.8
-9 -4 6 237.22 43.86
-9 -4 7 260.21 48.76
-9 -4 8 1023.57 89.98
-9 -4 9 107.13 30.91
-9 -4 10 331.36 53.37
-9 -4 11 168.12 39.94
-9 -4 12 106.41 33.49
-9 -4 13 135.51 39.4
-9 -4 14 59.08 27.88
-9 -4 15 52.54 25.69
-9 -4 16 11.06 19.06
-9 -4 17 164.41 44.27
-9 -3 6 891.22 78.03
-9 -3 7 436.77 55.81
-9 -3 8 168.38 36.92
-9 -3 9 201.01 38.87
-9 -3 10 94.46 30.23
-9 -3 11 714.84 74.85
-9 -3 12 220.72 47.02
-9 -3 13 274.84 49.55
-9 -3 14 330.43 55.84
-9 -3 15 62.38 26.07
-9 -2 7 232.65 42.07
-9 -2 8 790.05 73.49
-9 -2 9 1655.66 105.11
-9 -2 10 357.41 51.83
-9 -2 11 16.4 15.97
-9 -2 12 52.6 25.42
-9 -2 13 81.98 28.37
-9 -2 14 -32.02 19.56
-9 -1 9 96.74 26.62
-9 -1 10 -3.69 14.2
-9 -1 11 49.52 21.61
-9 -1 12 426.52 52.92
-8 -14 -2 118.21 49.04
-8 -14 -1 115.34 50.98
-8 -14 0 240.57 65.12
-8 -14 1 240.23 68.61
-8 -14 2 135.98 48.82
-8 -14 3 355.05 73.33
-8 -13 -2 125.12 44.17
-8 -13 -1 111.71 41.77
-8 -13 0 167.4 47.69
-8 -13 1 55.46 35.15
-8 -13 2 219.47 56.08
-8 -13 3 63.27 36.54
-8 -13 4 453.23 82.06
-8 -13 5 98.71 47.17
-8 -13 6 331.07 73.49
-8 -13 7 175.21 59.68
-8 -12 -2 8.29 27.48
-8 -12 -1 30.16 26.79
-8 -12 0 45.08 31.73
-8 -12 1 207.74 51.33
-8 -12 2 34.15 38.75
-8 -12 3 232.42 55.87
-8 -12 4 31.33 26.11
-8 -12 5 15.92 34.78
-8 -12 6 421.2 76.59
-8 -12 7 35.46 26.65
-8 -12 8 134.86 43.62
-8 -12 9 27.36 25.14
-8 -12 10 65.93 43.43
-8 -11 -2 426.47 70.47
-8 -11 -1 63.07 39.85
-8 -11 0 425.77 68.15
-8 -11 1 154.49 48.84
-8 -11 2 203.48 57.14
-8 -11 3 661.24 84.74
-8 -11 4 289.86 65.96
-8 -11 5 463.1 75.75
-8 -11 6 60.15 39.19
-8 -11 7 224.07 52.71
-8 -11 8 79.32 27.32
-8 -11 9 83.7 36.73
-8 -11 10 69.87 32.24
-8 -11 11 72.13 44.86
-8 -11 12 115.44 42.42
-8 -10 -1 971.67 99.94
-8 -10 0 299.33 61.41
-8 -10 1 463.07 72.24
-8 -10 2 86.21 39.46
-8 -10 3 -4.8 20.11
-8 -10 4 138.81 41.16
-8 -10 5 3.37 26.32
-8 -10 6 366.95 65.56
-8 -10 7 -19.08 28.47
-8 -10 8 58.63 34.45
-8 -10 9 81 36.22
-8 -10 10 48.07 34.43
-8 -10 11 164.12 51.95
-8 -10 12 11.64 26.26
-8 -10 13 325.45 71.99
-8 -10 14 92.22 48.27
-8 -9 -1 41.78 25.22
-8 -9 0 111.84 42.26
-8 -9 1 750.01 86.27
-8 -9 2 112.48 42.13
-8 -9 3 646.15 80.53
-8 -9 4 124.4 40.18
-8 -9 5 147.99 44.68
-8 -9 6 242.94 54.98
-8 -9 7 39.86 31.42
-8 -9 8 246.33 55.56
-8 -9 9 12.05 24.12
-8 -9 10 103.02 37.79
-8 -9 11 29.77 28.08
-8 -9 12 121.74 42.03
-8 -9 13 112.77 43.16
-8 -9 14 64.16 32.63
-8 -9 15 62.75 33.24
-8 -9 16 34.09 32.32
-8 -8 -1 139.43 44.76
-8 -8 0 1018.24 95.85
-8 -8 1 444.22 65.82
-8 -8 2 236.15 49.66
-8 -8 3 259.25 51.62
-8 -8 4 163.02 44.84
-8 -8 5 300.66 56.58
-8 -8 6 164.1 44.38
-8 -8 7 421.84 65.8
-8 -8 8 4.55 20.96
-8 -8 9 520.59 73.13
-8 -8 10 161.45 46.84
-8 -8 11 254.51 56.69
-8 -8 12 166.89 46.65
-8 -8 13 30.71 31.9
-8 -8 14 178.44 48.94
-8 -8 15 -12.01 21.86
-8 -8 16 206.61 60.1
-8 -8 17 -41.65 30.08
-8 -8 18 82.97 47.67
-8 -7 0 46.56 29.11
-8 -7 1 697.01 77.02
-8 -7 2 681.05 75.65
-8 -7 3 623.86 75.03
-8 -7 4 1097.25 96.8
-8 -7 5 338.74 56.82
-8 -7 6 782.54 83.28
-8 -7 7 9.81 18.18
-8 -7 8 609.39 75.45
-8 -7 9 126.52 36.46
-8 -7 10 22.73 24.13
-8 -7 11 209.57 47.9
-8 -7 12 -34.1 26.77
-8 -7 13 167.16 46.59
-8 -7 14 14.04 22.62
-8 -7 15 98.18 39.22
-8 -7 16 96.45 38.35
-8 -7 17 -40.66 35.2
-8 -7 18 261.91 68.48
-8 -7 19 31.09 33.36
-8 -7 20 105.1 46.44
-8 -6 1 1448.52 104.9
-8 -6 2 787.63 79.26
-8 -6 3 1297.19 99.88
-8 -6 4 178.29 41.7
-8 -6 5 675.54 74.16
-8 -6 6 345.88 54.74
-8 -6 7 362.19 56.97
-8 -6 8 765.69 81.43
-8 -6 9 68.26 28.55
-8 -6 10 315.19 53.86
-8 -6 11 40.39 20.72
-8 -6 12 115.19 37.53
-8 -6 13 29.87 21.29
-8 -6 14 129.29 39.21
-8 -6 15 278.89 56.39
-8 -6 16 100.8 41.81
-8 -6 17 4.48 25.24
-8 -6 18 7.84 29.1
-8 -6 19 26.04 28.38
-8 -6 20 53.21 28.68
-8 -6 21 101.53 48.02
-8 -5 2 145.22 34.26
-8 -5 3 9.39 17
-8 -5 4 208.93 44.2
-8 -5 5 1410.64 101.32
-8 -5 6 492.04 61.59
-8 -5 7 392.53 55.82
-8 -5 8 30.61 21.74
-8 -5 9 729.76 77.83
-8 -5 10 71.87 29.88
-8 -5 11 275.74 51.87
-8 -5 12 112.66 35.21
-8 -5 13 42.03 28.47
-8 -5 14 118.4 35.56
-8 -5 15 90.06 35.25
-8 -5 16 357.13 64.08
-8 -5 17 20.79 23.89
-8 -5 18 337.21 66.32
-8 -5 19 84.05 39.88
-8 -5 20 55.54 31.2
-8 -4 3 1145.96 86.81
-8 -4 4 503.85 57.71
-8 -4 5 0.64 13.75
-8 -4 6 260.51 43.82
-8 -4 7 142.28 32.47
-8 -4 8 842.34 78.5
-8 -4 9 188.37 39.74
-8 -4 10 658.92 73.21
-8 -4 11 270.73 48.18
-8 -4 12 53.02 28.01
-8 -4 13 349.42 57.38
-8 -4 14 17.37 21.18
-8 -4 15 180.02 43.86
-8 -4 16 23 27.34
-8 -4 17 135.1 40.22
-8 -4 18 136.73 44.1
-8 -3 -6 127.32 16.55
-8 -3 -5 39.83 8.49
-8 -3 4 158.63 33.54
-8 -3 5 554.74 58.98
-8 -3 6 194.06 35.84
-8 -3 7 472.23 54.78
-8 -3 8 373.37 50.33
-8 -3 9 388.82 52.57
-8 -3 10 62.25 27.31
-8 -3 11 128.2 32.79
-8 -3 12 7.59 21.32
-8 -3 13 15.74 19.8
-8 -3 14 58.9 26.9
-8 -3 15 321.31 55.45
-8 -3 16 684.94 81.14
-8 -3 17 105.4 35.09
-8 -2 -6 189.81 27.76
-8 -2 -5 555.01 41.1
-8 -2 -4 37.35 13.32
-8 -2 -3 360.16 30.31
-8 -2 -2 328.61 28.78
-8 -2 -1 859.45 47.86
-8 -2 5 214.5 37.04
-8 -2 6 668.69 61.9
-8 -2 7 476.6 53.14
-8 -2 8 184.59 33.57
-8 -2 9 424.92 52.04
-8 -2 10 24.5 16.98
-8 -2 11 734.64 71.3
-8 -2 12 110.51 31.46
-8 -2 13 659.98 69.38
-8 -2 14 17.2 20.66
-8 -2 15 56.31 25.04
-8 -2 16 269.07 49.59
-8 -1 -5 11.78 10.1
-8 -1 -4 898.26 60.75
-8 -1 -3 270.57 33.42
-8 -1 -2 424.09 39.86
-8 -1 -1 845.94 55
-8 -1 0 162.24 25.85
-8 -1 7 31.55 17.46
-8 -1 8 1582.26 91.48
-8 -1 9 43.11 20.55
-8 -1 10 1957.86 105.35
-8 -1 11 287.44 41.95
-8 -1 12 -31.66 21.77
-8 -1 13 1184.55 87.45
-8 -1 14 44.2 20.36
-8 0 9 44.25 19.18
-8 0 10 1168.44 76.07
-8 0 11 115.93 27.91
-8 0 12 353.53 44.2
-7 -15 -3 179.28 50.51
-7 -15 -2 72.1 35.48
-7 -15 -1 38.96 24.69
-7 -15 0 190.51 54.88
-7 -15 1 30.5 44.29
-7 -14 -3 61.37 38.5
-7 -14 -2 139.79 53.84
-7 -14 -1 180.7 53.68
-7 -14 0 142.34 47.33
-7 -14 1 162.36 46.39
-7 -14 2 57.71 41.6
-7 -14 3 335.79 69.47
-7 -14 4 188.49 52.07
-7 -14 5 187.55 62.44
-7 -13 -3 139.89 47.41
-7 -13 -2 199.29 53.47
-7 -13 -1 31.52 29.43
-7 -13 0 281.2 58.34
-7 -13 1 149.43 51.54
-7 -13 2 282.22 60.01
-7 -13 3 250.85 60.74
-7 -13 4 133.56 45.49
-7 -13 5 78.45 34.98
-7 -13 6 5.24 31.28
-7 -13 7 130.07 51.45
-7 -13 8 45.25 36.14
-7 -12 -3 613.41 81.73
-7 -12 -2 113.02 46.09
-7 -12 -1 356.16 64.88
-7 -12 0 177.67 49.34
-7 -12 1 262.7 57.4
-7 -12 2 176.4 50.72
-7 -12 3 51.48 36.21
-7 -12 4 371.59 68.95
-7 -12 5 117.27 45.61
-7 -12 6 229.58 59.5
-7 -12 7 -31.57 27.84
-7 -12 8 99.25 43.97
-7 -12 9 13.91 27.02
-7 -12 10 109.77 39.35
-7 -12 11 141.24 53.04
-7 -11 -3 97.31 44.22
-7 -11 -2 698.07 86.21
-7 -11 -1 562.16 76.25
-7 -11 0 41.62 29.89
-7 -11 1 384.72 63.27
-7 -11 2 31.7 27.7
-7 -11 3 267.66 55.09
-7 -11 4 12.78 28.25
-7 -11 5 297.16 60.92
-7 -11 6 141.53 48.94
-7 -11 7 151.35 51.12
-7 -11 8 151.37 42.29
-7 -11 9 -30.02 28.54
-7 -11 10 272.55 62.74
-7 -11 11 35.32 33.49
-7 -11 12 209.65 56.39
-7 -11 13 100.08 40.97
-7 -10 -3 97.38 37.58
-7 -10 -2 334.67 54.92
-7 -10 -1 86.3 33.99
-7 -10 0 136.69 36.43
-7 -10 1 27.29 28.87
-7 -10 2 568.41 74.12
-7 -10 3 82.74 41.33
-7 -10 4 935.94 97.14
-7 -10 5 133.08 41.46
-7 -10 6 62.61 28.8
-7 -10 7 388.29 68.56
-7 -10 8 2.92 23.44
-7 -10 9 176.48 49.92
-7 -10 10 46.81 32.29
-7 -10 11 136.59 44.84
-7 -10 12 93.89 42.01
-7 -10 13 12.47 24.04
-7 -10 14 138.8 46.94
-7 -10 15 1.97 24.1
-7 -9 -2 73.2 37.15
-7 -9 -1 649.75 74.51
-7 -9 0 90.36 36.64
-7 -9 1 740.96 80.75
-7 -9 2 186.62 45.18
-7 -9 3 135.24 36.05
-7 -9 4 391.61 62.78
-7 -9 5 162.39 47.41
-7 -9 6 539.47 73.14
-7 -9 7 28.19 29.11
-7 -9 8 295.41 58.49
-7 -9 9 59.36 35.66
-7 -9 10 79.68 36.63
-7 -9 11 448.48 73.22
-7 -9 12 54.94 35.63
-7 -9 13 111.69 41.58
-7 -9 14 43.92 27.32
-7 -9 15 92.87 39.44
-7 -9 16 106.68 46.55
-7 -9 17 85.16 41.13
-7 -8 -2 478.15 62.16
-7 -8 -1 47.13 27.39
-7 -8 0 141.54 40.49
-7 -8 1 708.39 77.63
-7 -8 2 231.74 48.14
-7 -8 3 901.2 86.2
-7 -8 4 10.96 22.93
-7 -8 5 859.26 87.35
-7 -8 6 186.86 46.29
-7 -8 7 123.32 36.09
-7 -8 8 577.9 74.56
-7 -8 9 48.57 31.03
-7 -8 10 469.29 69.04
-7 -8 11 -5.09 26.36
-7 -8 12 197.91 47.04
-7 -8 13 66.97 24.65
-7 -8 14 -30.98 22.22
-7 -8 15 71.61 36.76
-7 -8 16 13.97 32.8
-7 -8 17 71.96 32.01
-7 -8 18 63.7 39.81
-7 -8 19 219.28 63.05
-7 -7 -1 620.3 70.27
-7 -7 0 857.87 80.7
-7 -7 1 107.19 31.55
-7 -7 2 561.31 65.7
-7 -7 3 46.4 24.78
-7 -7 4 465.74 60.73
-7 -7 5 87.66 29.71
-7 -7 6 239.82 47.54
-7 -7 7 1027.49 94.13
-7 -7 8 41.9 29.55
-7 -7 9 548.11 70.56
-7 -7 10 33.19 25.69
-7 -7 11 160.33 42.29
-7 -7 12 4.18 19.86
-7 -7 13 133.02 42.98
-7 -7 14 250.59 55.3
-7 -7 15 29.51 23.89
-7 -7 16 398.32 73.16
-7 -7 17 42.76 30.91
-7 -7 18 139.74 47.48
-7 -7 19 19.94 24.91
-7 -7 20 30.42 34.14
-7 -6 0 65.23 28.1
-7 -6 1 690.52 69.34
-7 -6 2 119.64 36.9
-7 -6 3 736.2 71.88
-7 -6 4 864.87 80.04
-7 -6 5 71.99 30.28
-7 -6 6 692.21 72.98
-7 -6 7 38.49 22.86
-7 -6 8 517.27 64.01
-7 -6 9 2.28 17.33
-7 -6 10 343.17 57.08
-7 -6 11 208.46 45.02
-7 -6 12 203.88 46.99
-7 -6 13 241.25 47.91
-7 -6 14 68.17 28.87
-7 -6 15 151.59 45.42
-7 -6 16 -21.97 21.14
-7 -6 17 302.97 62.94
-7 -6 18 408.01 74.64
-7 -6 19 257.99 62.74
-7 -6 20 86.25 44.14
-7 -6 21 -14.78 25.1
-7 -6 22 45.54 32.13
-7 -5 -13 -9.62 14.72
-7 -5 -12 173.91 28.8
-7 -5 -11 419.73 38.22
-7 -5 -10 23.96 12.84
-7 -5 -9 658.33 36.33
-7 -5 -8 2.38 4.58
-7 -5 0 1422.1 95.96
-7 -5 1 301.13 45.59
-7 -5 2 500.42 57.01
-7 -5 3 378.47 49.6
-7 -5 4 26.5 19.8
-7 -5 5 324.38 47.23
-7 -5 6 6.78 14.41
-7 -5 7 606.83 65.47
-7 -5 8 422.7 56.69
-7 -5 9 488.63 61.95
-7 -5 10 441.81 60.53
-7 -5 11 53.18 27.51
-7 -5 12 78.23 31.95
-7 -5 13 -1.42 20.37
-7 -5 14 87.8 34.29
-7 -5 15 114.35 36.4
-7 -5 16 380.82 67.59
-7 -5 17 66.24 29.64
-7 -5 18 69.43 36.95
-7 -5 19 87.97 42.48
-7 -5 20 -39.77 33.51
-7 -5 21 82.43 34.76
-7 -4 -15 78.36 27.57
-7 -4 -14 179.43 34.2
-7 -4 -10 332.86 34.97
-7 -4 -9 59.7 14.56
-7 -4 -8 287.34 24.05
-7 -4 -7 33.59 7.85
-7 -4 1 0.17 14.79
-7 -4 2 326.06 44.12
-7 -4 3 339.48 43.52
-7 -4 4 243.21 37.66
-7 -4 5 44.38 17.24
-7 -4 6 274.86 42.62
-7 -4 7 151.02 33.41
-7 -4 8 42.73 19.54
-7 -4 9 321.51 48.45
-7 -4 10 41.21 19.86
-7 -4 11 312.58 49.2
-7 -4 12 2.99 22.74
-7 -4 13 379.31 57.9
-7 -4 14 73.12 33.17
-7 -4 15 106.39 38.24
-7 -4 16 307.01 56.36
-7 -4 17 -13.42 20.83
-7 -4 18 184.58 45.74
-7 -4 19 45.2 30.42
-7 -4 20 139.18 43.64
-7 -3 -6 1507.53 56.42
-7 -3 -5 19.13 6.76
-7 -3 2 13.63 14.95
-7 -3 3 489.33 52.61
-7 -3 4 515.91 53.47
-7 -3 5 374.1 47.49
-7 -3 6 1379.18 89.49
-7 -3 7 206.15 36.95
-7 -3 8 1335.41 89.61
-7 -3 9 174.21 33.87
-7 -3 10 971.84 81.14
-7 -3 11 719.67 71.96
-7 -3 12 171.23 39.48
-7 -3 13 630.46 71.46
-7 -3 14 342.42 53.87
-7 -3 15 210.65 44.72
-7 -3 16 -36.78 26.15
-7 -3 17 71.78 30.54
-7 -3 18 261.16 53.69
-7 -3 19 276.05 55.99
-7 -2 -6 41.9 12.97
-7 -2 -5 1201.78 58.1
-7 -2 -4 860 45.39
-7 -2 -3 76.7 13.19
-7 -2 -2 420.9 28.7
-7 -2 -1 216.43 21.83
-7 -2 4 369.02 43.34
-7 -2 5 1423.23 84.39
-7 -2 6 14.07 12.92
-7 -2 7 242.39 36.02
-7 -2 8 405.68 47.21
-7 -2 9 1105.9 78.81
-7 -2 10 178.39 31.96
-7 -2 11 1176.88 85.43
-7 -2 12 937.25 77.93
-7 -2 13 8.72 18.26
-7 -2 14 530.92 61.4
-7 -2 15 76.71 25.65
-7 -2 16 487.64 63.82
-7 -2 17 -23.21 24.51
-7 -2 18 84.72 26.05
-7 -1 -6 534.15 49.17
-7 -1 -5 246.84 31.62
-7 -1 -4 32.38 15.39
-7 -1 -3 1443.1 71.41
-7 -1 -2 38.02 16.45
-7 -1 -1 1493.19 68.66
-7 -1 0 74.29 18.4
-7 -1 1 357.76 35.85
-7 -1 2 1276.72 70.28
-7 -1 5 75.04 19.83
-7 -1 6 231.57 33.81
-7 -1 7 231.34 34.5
-7 -1 8 311.35 37.98
-7 -1 9 254.46 36.69
-7 -1 10 65.76 23.61
-7 -1 11 415.72 48.79
-7 -1 12 245.42 39.6
-7 -1 13 190.76 36.99
-7 -1 14 25.21 19.65
-7 -1 15 71.76 25.99
-7 -1 16 216.73 39.16
-7 0 7 364.51 38.39
-7 0 8 380.64 40.1
-7 0 9 270.73 33.96
-7 0 10 470.04 47.12
-7 0 11 127.6 27.27
-7 0 12 155.07 28.88
-7 0 13 297.97 40.83
-7 0 14 830.71 68.31
-7 1 -7 466.42 44.7
-7 1 9 669.93 49.16
-7 1 10 665.95 49.96
-7 1 11 1126.56 66.58
-7 1 12 319.13 36.62
-7 3 9 272.05 24.28
-7 3 10 307.65 25.95
-7 4 0 117.8 20.73
-7 4 8 151.05 21.03
-7 4 9 529.29 39.12
-7 4 10 -3.92 9.98
-7 5 7 -2.12 11.96
-7 5 8 788.04 53.38
-7 5 9 100.2 22.07
-7 5 10 735.81 52.07
-7 6 6 58.28 23.43
-7 6 7 555.28 48.77
-7 6 8 35.69 16.54
-7 6 9 346.2 39.47
-7 6 10 8.57 10.24
-7 7 6 351.64 41.38
-7 7 7 50.86 18.25
-7 7 8 106.63 24.61
-7 7 9 435.66 47.83
-7 7 10 -13.79 15.96
-7 8 6 223.36 37.44
-7 8 7 128.84 29.51
-7 8 8 232.95 37.72
-7 8 9 -14.23 18.34
-7 8 10 191.81 34.5
-7 9 6 42.84 23.73
-7 9 7 193.46 37.82
-7 9 8 155.25 35.78
-7 9 9 321.78 47.89
-7 10 6 240.13 42.25
-7 10 7 53.38 27.56
-7 10 8 198.98 40.23
-7 10 9 194.61 40.8
-7 11 7 299.57 49.41
-7 11 8 105.83 30.08
-7 11 9 25.55 20.69
-7 12 7 414.78 59.97
-7 12 8 78 28.55
-6 -16 -3 191.43 51.34
-6 -16 -2 178.71 51.9
-6 -15 -3 237.3 61.09
-6 -15 -2 436.35 78.7
-6 -15 -1 66.62 40.27
-6 -15 0 360.2 74.42
-6 -15 1 118.62 46.95
-6 -15 2 217.18 58.77
-6 -15 3 114.31 51.81
-6 -14 -4 183.47 49.95
-6 -14 -3 524.28 79.4
-6 -14 -2 155.32 54.23
-6 -14 -1 438.1 79.5
-6 -14 0 243.45 60.01
-6 -14 1 386.72 74.13
-6 -14 2 381.97 74.91
-6 -14 3 44.71 34.62
-6 -14 4 207.73 56.79
-6 -14 5 9.53 30.96
-6 -14 6 232.99 61.16
-6 -14 7 4.55 26.69
-6 -13 -4 180.23 45.98
-6 -13 -3 212.24 54.86
-6 -13 -2 536.75 80.28
-6 -13 -1 123.24 41.66
-6 -13 0 135.26 40.25
-6 -13 1 142.47 45.05
-6 -13 2 28.21 30.75
-6 -13 3 239.95 59.43
-6 -13 4 102.06 48.09
-6 -13 5 161.52 49.22
-6 -13 6 105.26 46.5
-6 -13 7 196.47 50.18
-6 -13 8 214.23 54.35
-6 -13 9 2.51 26.99
-6 -12 -4 50.85 31.22
-6 -12 -3 329.43 59.69
-6 -12 -2 366.68 64.61
-6 -12 -1 106.05 38.4
-6 -12 0 423.18 66.42
-6 -12 1 155.97 47.33
-6 -12 2 356.18 66.5
-6 -12 3 114.9 43.75
-6 -12 4 266.73 59.74
-6 -12 5 99.61 40.02
-6 -12 6 28.73 26.46
-6 -12 7 137.69 47.59
-6 -12 8 10.79 23
-6 -12 9 271.01 62.51
-6 -12 10 102.35 44.68
-6 -12 11 150.16 51.66
-6 -12 12 194.28 60.25
-6 -11 -4 69.81 30.29
-6 -11 -3 452.17 65.33
-6 -11 -2 75.07 35.46
-6 -11 -1 510.81 72.39
-6 -11 0 56.59 36.84
-6 -11 1 505.16 72.26
-6 -11 2 19.06 24.73
-6 -11 3 380.73 65.24
-6 -11 4 162.49 43.96
-6 -11 5 65.87 35.45
-6 -11 6 617.16 84.13
-6 -11 7 -11.91 25.37
-6 -11 8 437.32 75.13
-6 -11 9 22.53 25.93
-6 -11 10 228.23 55.74
-6 -11 11 54.67 23.18
-6 -11 12 -2.33 28.21
-6 -11 13 80.87 39.59
-6 -11 14 81.06 35.63
-6 -10 -3 113.21 43.19
-6 -10 -2 1674.21 121.39
-6 -10 -1 345.2 61.21
-6 -10 0 1138.33 103.2
-6 -10 1 933.48 94.88
-6 -10 2 352.4 62.77
-6 -10 3 1058.75 100.92
-6 -10 4 72.25 34.82
-6 -10 5 782.63 88.87
-6 -10 6 28.19 29.05
-6 -10 7 198.32 48.98
-6 -10 8 78.06 32.33
-6 -10 9 66.01 34.44
-6 -10 10 549.31 80.94
-6 -10 11 19.95 25.3
-6 -10 12 214.55 53.86
-6 -10 13 74.32 38.55
-6 -10 14 56.86 36.87
-6 -10 15 109.58 39.35
-6 -10 16 58.38 32.79
-6 -9 -3 1056.9 92.95
-6 -9 -2 185.75 46.4
-6 -9 -1 202.28 48.51
-6 -9 0 1035.06 93.8
-6 -9 1 35.31 21.03
-6 -9 2 177.76 46.3
-6 -9 3 136.26 35.85
-6 -9 4 81.37 31.07
-6 -9 5 295.63 52.06
-6 -9 6 38.04 30.83
-6 -9 7 984.15 97.35
-6 -9 8 19.01 20.7
-6 -9 9 514.51 74.53
-6 -9 10 44.09 29.38
-6 -9 11 207.12 49.89
-6 -9 12 80.37 36.02
-6 -9 13 189.75 53.66
-6 -9 14 306.69 65.66
-6 -9 15 68.1 40.27
-6 -9 16 297.51 65.09
-6 -9 17 34.94 26.51
-6 -8 -10 213.4 28.45
-6 -8 -9 754.8 52.82
-6 -8 -3 270.74 48.02
-6 -8 -2 314.47 50.4
-6 -8 -1 875.01 82.12
-6 -8 0 28.89 23.85
-6 -8 1 483.39 62.32
-6 -8 2 236.44 47.3
-6 -8 3 740.79 77.17
-6 -8 4 359.61 55.11
-6 -8 5 368.6 58.22
-6 -8 6 1112.94 96.56
-6 -8 7 114.97 36.67
-6 -8 8 574.62 71.2
-6 -8 9 22.36 18.24
-6 -8 10 155.84 42.57
-6 -8 11 122.05 39.83
-6 -8 12 123.19 42.35
-6 -8 13 396.42 67.4
-6 -8 14 20.94 20.28
-6 -8 15 470.41 77.9
-6 -8 16 76.4 37.59
-6 -8 17 169.88 52.8
-6 -8 18 9.51 25.28
-6 -8 19 117.57 48.49
-6 -7 -13 508.17 53.51
-6 -7 -12 332.79 39.95
-6 -7 -11 375.54 39.41
-6 -7 -10 102.16 22.27
-6 -7 -9 736.51 48.11
-6 -7 -8 114.29 17.67
-6 -7 -2 1993.24 118.9
-6 -7 -1 165.89 39.72
-6 -7 0 2324.35 128.37
-6 -7 1 201.41 40.58
-6 -7 2 940.63 81.95
-6 -7 3 363.84 51.51
-6 -7 4 226.83 41
-6 -7 5 1164.37 94.09
-6 -7 6 -8.63 18.82
-6 -7 7 887.78 84.43
-6 -7 8 123.53 35.02
-6 -7 9 315.62 53.36
-6 -7 10 866.19 87.59
-6 -7 11 298.12 54.1
-6 -7 12 623.01 79.34
-6 -7 13 4.08 18.98
-6 -7 14 123.15 38.81
-6 -7 15 118.14 42.04
-6 -7 16 153.79 47.74
-6 -7 17 290.91 61.89
-6 -7 18 -18.53 33.3
-6 -7 19 341.86 69.07
-6 -7 20 108.56 47.57
-6 -7 21 176.57 53.32
-6 -6 -16 41.06 19.9
-6 -6 -15 296.07 44.32
-6 -6 -14 140.92 33.83
-6 -6 -13 42.17 17.19
-6 -6 -12 439.02 46.65
-6 -6 -11 19.81 13.94
-6 -6 -10 266.58 30.78
-6 -6 -9 93.38 17.17
-6 -6 -8 451.21 31.05
-6 -6 -1 75.02 27.9
-6 -6 0 192.65 37.6
-6 -6 1 95.28 32.03
-6 -6 2 1568.69 101.84
-6 -6 3 229.22 43.22
-6 -6 4 936.96 80.21
-6 -6 5 35.71 21.17
-6 -6 6 312.12 48.99
-6 -6 7 397.55 55.39
-6 -6 8 196.79 38.83
-6 -6 9 397.61 56.77
-6 -6 10 136.63 36.6
-6 -6 11 302.7 52.59
-6 -6 12 131.6 38.56
-6 -6 13 221.29 46.59
-6 -6 14 177.02 44.24
-6 -6 15 225.16 51.24
-6 -6 16 37.82 31.3
-6 -6 17 74.04 36.42
-6 -6 18 156.4 47.34
-6 -6 19 73.34 35.16
-6 -6 20 75.05 40.46
-6 -6 21 92.92 41.1
-6 -6 22 109.57 47.3
-6 -5 -18 177.11 40.38
-6 -5 -17 5.33 21.2
-6 -5 -16 98.16 27.06
-6 -5 -15 431.96 52.94
-6 -5 -14 24.02 18.51
-6 -5 -13 521.51 52.03
-6 -5 -12 7 11.59
-6 -5 -11 1027.68 65.02
-6 -5 -10 15.85 11.75
-6 -5 -9 1371.99 62.19
-6 -5 -8 280.51 23.73
-6 -5 -7 8.57 6.4
-6 -5 -1 226.39 37.11
-6 -5 0 18.67 18.35
-6 -5 1 348.45 46.08
-6 -5 2 203.86 34.69
-6 -5 3 62.49 19.92
-6 -5 4 14.81 15.25
-6 -5 5 880.85 73.76
-6 -5 6 297.09 44.04
-6 -5 7 46.14 23.98
-6 -5 8 887.4 77.83
-6 -5 9 341.61 49.92
-6 -5 10 711.8 74.14
-6 -5 11 64.71 31.07
-6 -5 12 796.36 81.41
-6 -5 13 422.99 61.25
-6 -5 14 117.35 38.31
-6 -5 15 157.15 41.93
-6 -5 16 76 33.32
-6 -5 17 139.46 42.23
-6 -5 18 46.55 33.4
-6 -5 19 252.83 56.93
-6 -5 20 53.98 34.07
-6 -5 21 60.74 31.45
-6 -5 22 89.18 42.32
-6 -5 23 81.66 45.7
-6 -4 -20 58.86 29.86
-6 -4 -19 87.08 33.79
-6 -4 -18 156.73 35.73
-6 -4 -17 40.88 23.59
-6 -4 -16 427.4 58.78
-6 -4 -15 30.52 23.03
-6 -4 -14 1125.56 82.1
-6 -4 -13 79.54 22.2
-6 -4 -12 831.02 63.42
-6 -4 -11 10.07 13.14
-6 -4 -10 201.39 26.75
-6 -4 -9 210.22 25.35
-6 -4 -8 50.25 12.54
-6 -4 -7 1459.14 50.76
-6 -4 0 486.72 50.55
-6 -4 1 332.99 42.02
-6 -4 2 331.71 42.03
-6 -4 3 195.98 34.43
-6 -4 4 253.92 36.23
-6 -4 5 1848.82 102.99
-6 -4 6 426.86 49.63
-6 -4 7 1302.72 87.88
-6 -4 8 -4.41 16.32
-6 -4 9 91.4 28.83
-6 -4 10 466.13 56.78
-6 -4 11 141.16 33.76
-6 -4 12 1225.8 96.69
-6 -4 13 39.95 21.38
-6 -4 14 724.92 79.48
-6 -4 15 41.76 27.91
-6 -4 16 373.3 60.31
-6 -4 17 8.35 18.8
-6 -4 18 66.52 31.58
-6 -4 19 183.17 45.32
-6 -4 20 5.89 28.41
-6 -4 21 168.99 50.18
-6 -4 22 28.47 29.48
-6 -3 -22 56.24 34.4
-6 -3 1 638.54 57.51
-6 -3 2 3904.66 142.64
-6 -3 3 141.48 28.89
-6 -3 4 1553.56 87.59
-6 -3 5 128.75 27.63
-6 -3 6 19.18 14.17
-6 -3 7 27.52 17.04
-6 -3 8 692.87 63.45
-6 -3 9 45.83 21.8
-6 -3 10 913.69 74.74
-6 -3 11 624.93 64.07
-6 -3 12 223.27 40.44
-6 -3 13 932.8 82.35
-6 -3 14 28.53 18.63
-6 -3 15 201.42 41.86
-6 -3 16 193.33 44.89
-6 -3 17 102.58 33.89
-6 -3 18 317.5 59.13
-6 -3 19 19.12 19.82
-6 -3 20 272.78 55.75
-6 -3 21 54.68 30
-6 -2 -4 3832.44 98.53
-6 -2 -3 132.8 15.77
-6 -2 -2 1025.68 40.19
-6 -2 -1 1736.32 55.49
-6 -2 2 5.32 12.82
-6 -2 3 1341.51 77.27
-6 -2 4 1129.9 71.13
-6 -2 5 2234.38 102.21
-6 -2 6 976.68 67.2
-6 -2 7 279.25 35.93
-6 -2 8 112.6 25.77
-6 -2 9 55.22 16.64
-6 -2 10 198.82 35.59
-6 -2 11 137.73 29.19
-6 -2 12 381.42 48.94
-6 -2 13 480.39 57.07
-6 -2 14 283.99 46.88
-6 -2 15 366.78 53.59
-6 -2 16 25.94 22.23
-6 -2 17 204.44 41.55
-6 -2 18 -19.67 21.38
-6 -2 19 228.53 47.72
-6 -2 20 106.5 37.11
-6 -1 -4 51.75 14.59
-6 -1 -3 27.06 12.43
-6 -1 -2 247.28 27.07
-6 -1 -1 550.62 38.09
-6 -1 0 2462.55 84.36
-6 -1 1 18.55 9.48
-6 -1 2 743.16 48.97
-6 -1 4 129.53 24.12
-6 -1 5 57.45 17.94
-6 -1 6 251.91 33.2
-6 -1 7 1062.75 66.95
-6 -1 8 179.41 29.06
-6 -1 9 563.04 50.7
-6 -1 10 29.37 14.49
-6 -1 11 1586.28 90.41
-6 -1 12 73.36 21.25
-6 -1 13 457.09 52.34
-6 -1 14 605.65 61.19
-6 -1 15 37.37 20.76
-6 -1 16 322.78 49.38
-6 -1 17 26.86 17.17
-6 -1 18 245.32 46.55
-6 0 -8 435.84 42.71
-6 0 -7 12.11 13.28
-6 0 -6 976.82 65.45
-6 0 -4 900.68 62.8
-6 0 -3 2094.38 95.14
-6 0 -2 606.29 48.45
-6 0 -1 794.41 54.61
-6 0 0 269.52 30.8
-6 0 1 41.83 14.87
-6 0 6 1104.18 62.27
-6 0 7 65.29 16.21
-6 0 8 297.56 33.4
-6 0 9 160.74 26.72
-6 0 10 940.27 62.23
-6 0 11 645.58 53.03
-6 0 12 15.21 11.61
-6 0 13 986.89 71.2
-6 0 14 132.88 27.54
-6 0 15 145.3 31.94
-6 0 16 91.63 26.94
-6 1 -8 437.83 37.3
-6 1 -7 121.22 21.33
-6 1 8 81.69 17.17
-6 1 9 699.52 47.65
-6 1 10 457.12 39.88
-6 1 11 190.22 27.01
-6 1 12 462.08 42.89
-6 1 13 5.06 13.11
-6 1 14 116.04 25.57
-6 1 15 27.26 15.98
-6 2 -7 350.45 31.83
-6 2 0 643.98 44.55
-6 2 7 250.3 20.03
-6 2 8 157.33 16.07
-6 2 10 -1.05 8.06
-6 2 11 375.37 32.61
-6 2 12 108.11 19.71
-6 2 13 214.8 28.1
-6 3 -1 567.84 42.82
-6 3 0 258.36 27.34
-6 3 6 107.84 16.11
-6 3 7 87.82 14.8
-6 3 8 768.14 42.33
-6 4 -1 118.76 21.96
-6 4 0 599.74 40.01
-6 4 1 144.35 17.99
-6 4 5 882.36 50.83
-6 4 6 185.43 25.5
-6 4 7 553.79 40.21
-6 4 8 18.63 9.94
-6 5 -1 1122.26 61.06
-6 5 0 803.38 46.84
-6 5 1 780.12 40.1
-6 5 4 1306.92 68.62
-6 5 5 82.73 23.23
-6 5 6 693.7 50.64
-6 5 7 418.68 40.05
-6 5 8 189.02 28.67
-6 6 4 281.99 36.48
-6 6 5 120.59 24.71
-6 6 6 242.84 33.62
-6 6 7 75.88 21.67
-6 6 8 391.55 41.14
-6 6 9 20.04 14.08
-6 7 4 9.62 11.29
-6 7 5 28.26 17.03
-6 7 6 -5.66 11.75
-6 7 7 147.61 27.76
-6 7 8 11.25 18.62
-6 7 9 558.36 54.73
-6 7 10 10.47 12.31
-6 8 4 457.96 50.51
-6 8 5 182.76 35.47
-6 8 6 413.44 49.68
-6 8 7 52.87 24.59
-6 8 8 269.03 40.4
-6 8 9 288 42.55
-6 8 10 242.38 40.02
-6 8 11 220.97 38.55
-6 9 4 189.47 36.12
-6 9 5 187.77 39.42
-6 9 6 241.83 41.18
-6 9 7 155.63 35.09
-6 9 8 111.76 31.14
-6 9 9 81.57 25.38
-6 9 10 178.48 36.63
-6 9 11 12.46 17.06
-6 9 12 267.42 45.18
-6 10 4 303.41 46.73
-6 10 5 162.37 38.94
-6 10 6 81.69 29.98
-6 10 7 348.72 51.36
-6 10 8 48.74 26.8
-6 10 9 372.51 53.81
-6 10 10 17.08 24.42
-6 10 11 11.46 17
-6 10 12 62.68 27
-6 11 4 144.55 33.43
-6 11 5 129.49 35.83
-6 11 6 284 48.84
-6 11 7 104.96 37.27
-6 11 8 163.7 39.55
-6 11 9 14.04 18.2
-6 11 10 192.93 43.09
-6 11 11 205.72 46.73
-6 11 12 71.23 28.03
-6 12 5 272.03 49.23
-6 12 6 200.79 44.85
-6 12 7 393.75 61.92
-6 12 8 161.85 44.42
-6 12 9 217.23 47.93
-6 12 10 159.3 42.95
-6 12 11 26.36 23.17
-6 13 6 135.96 35.97
-6 13 6 192.47 63.22
-6 13 7 99.77 34.12
-6 13 8 113.72 38.18
-6 13 9 202.26 46.77
-6 13 10 85.06 38.12
-6 13 11 126.9 42.09
-5 -16 -4 152.58 51.39
-5 -16 -3 119.45 44.78
-5 -16 -2 65.16 36.48
-5 -16 -1 276.77 63.26
-5 -16 0 147.79 50.84
-5 -16 1 174.6 53.07
-5 -15 -4 287.96 62.55
-5 -15 -3 139.79 47.88
-5 -15 -2 374.41 69.61
-5 -15 -1 101.02 44.21
-5 -15 0 199.26 55.35
-5 -15 1 341.86 67.74
-5 -15 2 18.82 29.63
-5 -15 3 252.24 61.32
-5 -15 4 59.06 39.53
-5 -15 5 112.49 43.72
-5 -14 -4 141.78 39.91
-5 -14 -3 212.04 52.14
-5 -14 -2 347.8 65.05
-5 -14 -1 235.52 56.18
-5 -14 0 332.43 64.47
-5 -14 1 28.55 33.11
-5 -14 2 377.31 68.53
-5 -14 3 19.78 28.07
-5 -14 4 250.33 56.86
-5 -14 5 148.66 53.89
-5 -14 6 149.63 47.09
-5 -14 7 207.14 56.61
-5 -14 8 8.89 25.06
-5 -13 -4 316.32 60.7
-5 -13 -3 395.91 67.87
-5 -13 -2 134.61 46.49
-5 -13 -1 447.92 70.18
-5 -13 0 34.2 26.62
-5 -13 1 277.14 57.07
-5 -13 2 11.4 30.73
-5 -13 3 117.81 47.3
-5 -13 4 110.29 42.56
-5 -13 5 37.31 31.29
-5 -13 6 46.02 33.53
-5 -13 7 2.34 22.78
-5 -13 8 119.97 49.95
-5 -13 9 -4.15 24.42
-5 -13 10 111.11 45.84
-5 -12 -4 463.95 66.53
-5 -12 -3 85.58 33.07
-5 -12 -2 474.97 70.34
-5 -12 -1 169.25 43.88
-5 -12 0 264.79 54.3
-5 -12 1 201.24 52
-5 -12 2 65.84 36.53
-5 -12 3 318.11 57.33
-5 -12 4 -38.17 26.55
-5 -12 5 254.63 54.32
-5 -12 6 11.73 26.83
-5 -12 7 218.45 54.19
-5 -12 8 182.88 50.44
-5 -12 9 199.75 56.1
-5 -12 10 124.12 50.54
-5 -12 11 26.22 32.36
-5 -12 12 117.09 46.73
-5 -11 -4 269.19 53.37
-5 -11 -3 827.83 88.23
-5 -11 -2 635.95 78.87
-5 -11 -1 909.01 93.24
-5 -11 0 612.01 78.94
-5 -11 1 206.05 48.87
-5 -11 2 956.22 97.25
-5 -11 3 169.22 46.62
-5 -11 4 281.38 56.32
-5 -11 5 366.54 63.24
-5 -11 6 70.62 37.07
-5 -11 7 244.02 55.58
-5 -11 8 98.81 42.76
-5 -11 9 542.21 82.26
-5 -11 10 8.13 27.58
-5 -11 11 396.01 73.96
-5 -11 12 -8.3 26.24
-5 -11 13 140.12 45.14
-5 -11 14 151.68 47.11
-5 -10 -10 480.49 54.96
-5 -10 -4 393.72 59.22
-5 -10 -3 255.75 47.14
-5 -10 -2 240.27 47.81
-5 -10 -1 589.36 72.6
-5 -10 0 23.78 29.05
-5 -10 1 400.44 59.11
-5 -10 2 112.5 39.71
-5 -10 3 190.65 46.54
-5 -10 4 48.71 31
-5 -10 5 42.26 27.24
-5 -10 6 283.21 54.4
-5 -10 7 284.77 55.78
-5 -10 8 592.34 77.72
-5 -10 9 -12.9 23.49
-5 -10 10 293.84 59.79
-5 -10 11 -46.4 26.59
-5 -10 12 17.34 21.3
-5 -10 13 398.14 71.45
-5 -10 14 -6.66 30.26
-5 -10 15 411.23 74.53
-5 -10 16 -17.25 22.07
-5 -9 -13 95.35 30.22
-5 -9 -12 452.14 55.74
-5 -9 -11 364.09 49.48
-5 -9 -10 229.83 37.47
-5 -9 -9 1133.36 79.49
-5 -9 -4 1311.64 101.66
-5 -9 -3 82.05 31.85
-5 -9 -2 1049.47 89.93
-5 -9 -1 38.49 32.18
-5 -9 0 1432.81 106.35
-5 -9 1 108.35 41.52
-5 -9 2 1039.24 93.24
-5 -9 3 832.42 83.22
-5 -9 4 222.95 50.36
-5 -9 5 1451.71 111.83
-5 -9 6 83.2 40.11
-5 -9 7 774.48 85.13
-5 -9 8 373.08 60.57
-5 -9 9 205.1 47.91
-5 -9 10 471.64 69.16
-5 -9 11 56.5 28.38
-5 -9 12 377.57 68.25
-5 -9 13 11.82 23.77
-5 -9 14 224.96 55.3
-5 -9 15 81.1 38.52
-5 -9 16 34.7 34.24
-5 -9 17 50.06 32.43
-5 -9 18 8.05 22.74
-5 -8 -16 86.59 31.84
-5 -8 -15 751.57 76.2
-5 -8 -14 81.29 25.82
-5 -8 -13 439.04 51.24
-5 -8 -12 444.13 51.09
-5 -8 -11 25.81 19.32
-5 -8 -10 1040.25 72.87
-5 -8 -9 125.29 27.02
-5 -8 -8 471.34 46.14
-5 -8 -3 569.3 62.97
-5 -8 -2 38.32 23.54
-5 -8 -1 193.01 40.42
-5 -8 0 238.8 42.02
-5 -8 1 245.48 47.61
-5 -8 2 496.47 60.34
-5 -8 3 -0.82 21.85
-5 -8 4 428.84 57.49
-5 -8 5 80.3 30.46
-5 -8 6 694.11 75.62
-5 -8 7 209.25 43.3
-5 -8 8 557.82 72.65
-5 -8 9 715.91 81.41
-5 -8 10 33.71 24.46
-5 -8 11 554.87 73.83
-5 -8 12 186.32 45.55
-5 -8 13 520.76 75.5
-5 -8 14 29.89 25.12
-5 -8 15 174.32 42.8
-5 -8 16 233.17 56.2
-5 -8 17 67.46 30.97
-5 -8 18 185.79 52.17
-5 -8 19 36.27 33.49
-5 -7 -18 171.35 44.18
-5 -7 -17 140.86 37.02
-5 -7 -16 156.97 40.37
-5 -7 -15 290.7 48.73
-5 -7 -14 197.56 40.37
-5 -7 -13 452.86 52.07
-5 -7 -12 4.92 14.32
-5 -7 -11 1429.16 84.81
-5 -7 -10 88.25 21.62
-5 -7 -9 611.8 50.35
-5 -7 -8 153.61 25.36
-5 -7 -7 180.84 25.95
-5 -7 -3 341.74 50
-5 -7 -2 451.44 53.9
-5 -7 -1 86.82 27.11
-5 -7 0 81.66 30.35
-5 -7 1 1492.8 100.42
-5 -7 2 78.84 31.55
-5 -7 3 998.16 82.95
-5 -7 4 671.22 68.17
-5 -7 5 569.15 64.59
-5 -7 6 182.08 39.33
-5 -7 7 14.31 17.25
-5 -7 8 1288.16 100.78
-5 -7 9 -35.74 26.41
-5 -7 10 842.71 85.04
-5 -7 11 197.86 43.81
-5 -7 12 130.37 35.32
-5 -7 13 266.29 52.62
-5 -7 14 141.78 40.73
-5 -7 15 334.09 61.97
-5 -7 16 121.98 41.11
-5 -7 17 146.01 44.78
-5 -7 18 20.43 22.87
-5 -7 19 121.22 46.97
-5 -7 20 -12.87 30.63
-5 -7 21 97.5 43.25
-5 -6 -20 -5.68 19.64
-5 -6 -19 72.55 33.26
-5 -6 -18 73.76 31.26
-5 -6 -17 155.14 37.15
-5 -6 -16 404.62 57.55
-5 -6 -15 -7.12 14.45
-5 -6 -14 616.09 62.62
-5 -6 -13 64.84 21.24
-5 -6 -12 377.82 45.54
-5 -6 -11 -5.68 12.63
-5 -6 -10 40.1 15.47
-5 -6 -9 1064.83 61.85
-5 -6 -8 16.28 9.04
-5 -6 -7 987.48 52.28
-5 -6 -6 86.79 15.61
-5 -6 -2 907.98 73.76
-5 -6 -1 189.91 37.74
-5 -6 0 2074.15 112.3
-5 -6 1 493.32 56.54
-5 -6 2 474.76 54.78
-5 -6 3 1130.41 82.84
-5 -6 4 440.87 52.49
-5 -6 5 547.55 59.33
-5 -6 6 321.08 46.65
-5 -6 7 1289.61 94.02
-5 -6 8 49.25 27.88
-5 -6 9 83.6 30.66
-5 -6 10 193.11 41.05
-5 -6 11 210.65 42.95
-5 -6 12 296.83 52.67
-5 -6 13 325.05 55.6
-5 -6 14 540.92 73.52
-5 -6 15 36.01 22.15
-5 -6 16 244.85 53.5
-5 -6 17 141.1 38.15
-5 -6 18 14.67 27.1
-5 -6 19 106.68 40.21
-5 -6 20 46.51 32.87
-5 -6 21 175.97 51.72
-5 -6 22 59.67 37.68
-5 -5 -22 85.97 33.26
-5 -5 -21 17.91 19.13
-5 -5 -20 87 34
-5 -5 -19 93.84 35.81
-5 -5 -18 73.21 28.55
-5 -5 -17 152.29 37.64
-5 -5 -16 35.42 20.75
-5 -5 -15 903.22 77.6
-5 -5 -14 146.83 30.88
-5 -5 -13 251.44 37.89
-5 -5 -12 348.39 42.66
-5 -5 -11 9.66 11.01
-5 -5 -10 29.82 12.49
-5 -5 -9 57.43 15.57
-5 -5 -8 543.04 38.5
-5 -5 -7 91.61 14.6
-5 -5 -6 210.39 19.5
-5 -5 -2 81.29 27.7
-5 -5 -1 1790.52 97.81
-5 -5 0 142.74 29.68
-5 -5 1 1087.35 75.84
-5 -5 2 1151.8 78.6
-5 -5 3 474.71 51.21
-5 -5 4 921.89 71.71
-5 -5 5 77.18 24.51
-5 -5 6 426.66 50.97
-5 -5 7 21 16.03
-5 -5 8 406.93 51.82
-5 -5 9 35.1 17.59
-5 -5 10 54.92 25.52
-5 -5 11 505.01 62.52
-5 -5 12 12.4 17.93
-5 -5 13 800.13 81.96
-5 -5 14 195.88 43.39
-5 -5 15 269.32 50.55
-5 -5 16 146.24 42.92
-5 -5 17 54.1 27.41
-5 -5 18 144.59 41.1
-5 -5 19 16.42 20.43
-5 -5 20 194.72 50.24
-5 -5 21 27.75 30.92
-5 -5 22 228.84 59.29
-5 -5 23 139.06 50.57
-5 -4 -24 1.7 28.72
-5 -4 -23 56.22 26.79
-5 -4 -22 57.73 31.27
-5 -4 -21 55.52 26.18
-5 -4 -20 98.3 35.39
-5 -4 -19 10.47 20.92
-5 -4 -18 177.49 42.57
-5 -4 -17 32.81 23.78
-5 -4 -16 247.53 42.99
-5 -4 -15 213.3 40.77
-5 -4 -14 611.9 62.13
-5 -4 -13 319.2 43.35
-5 -4 -12 57.9 20.27
-5 -4 -11 1159.62 72.15
-5 -4 -10 -10.73 13.48
-5 -4 -9 632.51 46.02
-5 -4 -8 429.83 34.38
-5 -4 -7 449.7 30.72
-5 -4 -6 378.08 23.92
-5 -4 -1 660.96 59.25
-5 -4 0 1336.18 81.67
-5 -4 1 2990.08 124.11
-5 -4 2 55.49 21.67
-5 -4 3 2160.5 105.21
-5 -4 4 1349.38 83.13
-5 -4 5 670.68 59.16
-5 -4 6 48.82 21.14
-5 -4 7 666.69 60.45
-5 -4 8 556.3 57.04
-5 -4 9 109.66 32.6
-5 -4 10 1796.57 107.62
-5 -4 11 14.83 20.95
-5 -4 12 448.39 58.3
-5 -4 13 388.32 57.26
-5 -4 14 200.08 43.91
-5 -4 15 193.17 44.01
-5 -4 16 12.38 18.49
-5 -4 17 306.17 57.23
-5 -4 18 -10.18 20.7
-5 -4 19 83.92 33.69
-5 -4 20 -21.72 22.77
-5 -4 21 65.63 28.48
-5 -4 22 17.8 21.8
-5 -4 23 7.03 24.11
-5 -4 24 120.88 47.84
-5 -3 -25 1.12 23.59
-5 -3 -24 230.42 58.13
-5 -3 -23 91.53 38.59
-5 -3 -22 26.76 26.12
-5 -3 -21 154.22 45.79
-5 -3 0 1132.37 70.85
-5 -3 1 9 14.97
-5 -3 2 2525.09 106.11
-5 -3 3 269.46 34.68
-5 -3 4 40.16 19.07
-5 -3 5 2523.26 109.6
-5 -3 6 608.4 53.9
-5 -3 7 1666.43 90.76
-5 -3 8 7.9 13.96
-5 -3 9 1171.71 79.77
-5 -3 10 44.32 23.01
-5 -3 10 19.18 8.32
-5 -3 11 567.93 59.32
-5 -3 12 656.76 65.4
-5 -3 13 937.86 80.95
-5 -3 14 1011.61 86.72
-5 -3 15 -13.48 16.78
-5 -3 16 507.05 64.61
-5 -3 17 88.84 31.62
-5 -3 18 261.36 50.63
-5 -3 19 3.12 22.62
-5 -3 20 82.62 37.21
-5 -3 21 173.81 43.27
-5 -3 22 2.8 23.76
-5 -2 -25 98.48 42.71
-5 -2 -3 1224.43 42.2
-5 -2 -2 629.69 26.66
-5 -2 1 3776.84 128.29
-5 -2 2 986.73 62.93
-5 -2 3 1747.83 83.32
-5 -2 4 64.54 21.29
-5 -2 5 2159.87 95.15
-5 -2 6 2023.12 93.6
-5 -2 7 525.68 47.8
-5 -2 8 3437.5 129.66
-5 -2 9 816.22 62.74
-5 -2 9 589.9 30.82
-5 -2 10 646.06 57.08
-5 -2 10 418.5 28.09
-5 -2 11 378.95 46.47
-5 -2 11 281.85 25.65
-5 -2 12 204.2 35.89
-5 -2 12 160.59 20.31
-5 -2 13 558.23 59.79
-5 -2 14 35.37 21.11
-5 -2 15 316.07 49.08
-5 -2 16 386.68 55.02
-5 -2 17 82.11 32.19
-5 -2 18 205.92 45.91
-5 -2 19 -14.95 27.45
-5 -2 20 253.14 50.53
-5 -2 21 35.64 22.8
-5 -1 -7 266.93 34.64
-5 -1 -6 99.94 22.58
-5 -1 -5 59.26 19.87
-5 -1 -3 467.68 34.12
-5 -1 -2 1473.91 58.16
-5 -1 -1 703.84 37.57
-5 -1 0 2290.32 72.29
-5 -1 1 503.32 34.25
-5 -1 2 1004.52 52.63
-5 -1 3 2072.02 85.24
-5 -1 4 201.46 27.96
-5 -1 5 1944 83.51
-5 -1 6 174.99 25
-5 -1 7 265.09 31.76
-5 -1 8 114.92 23.03
-5 -1 9 439.78 42.79
-5 -1 10 225.07 33.01
-5 -1 10 176.01 22.87
-5 -1 11 24.45 16.79
-5 -1 12 737.25 61.8
-5 -1 13 182.28 33.86
-5 -1 14 65.84 24.53
-5 -1 15 843.22 74.8
-5 -1 16 -22.69 20.1
-5 -1 17 59.02 25.97
-5 -1 18 21.61 24.01
-5 -1 19 101.7 33.27
-5 -1 20 37.84 27.95
-5 0 -7 452.77 39.24
-5 0 -6 508.35 43.54
-5 0 -3 2647.55 100.72
-5 0 -2 33.21 16.78
-5 0 -1 464.36 39.61
-5 0 -1 441.92 38.22
-5 0 0 659.16 45.14
-5 0 1 192.59 25.19
-5 0 2 1032.11 58.63
-5 0 3 107.8 21.61
-5 0 4 1891.85 76
-5 0 5 160.47 23.52
-5 0 6 132.8 22.48
-5 0 7 770.28 49.57
-5 0 8 230.76 28.84
-5 0 9 1023.88 60.29
-5 0 10 15.23 12.24
-5 0 11 605.31 50.47
-5 0 12 18.36 13.09
-5 0 13 597.99 54.98
-5 0 14 7.58 12.04
-5 0 15 555.86 56.85
-5 0 16 126.09 30.29
-5 0 17 44.73 19.97
-5 0 18 579.59 65.48
-5 1 -7 188.58 21.55
-5 1 -6 1756.78 71.17
-5 1 -2 2156.47 99.11
-5 1 -1 1751.44 86.16
-5 1 -1 1690.11 73.09
-5 1 0 589.08 39.39
-5 1 0 694.12 52.81
-5 1 1 1365.5 73.29
-5 1 6 2301.32 53.43
-5 1 6 2372.83 78.13
-5 1 7 45.04 12.29
-5 1 8 539.44 37.85
-5 1 9 425.48 34.55
-5 1 10 576.78 42.36
-5 1 11 170.15 25.02
-5 1 12 750.22 53.48
-5 1 13 866.88 60.09
-5 1 14 75.86 23.07
-5 1 15 1426.17 84.42
-5 1 16 35.6 18.94
-5 1 17 292.94 41.9
-5 2 -2 924.18 54.3
-5 2 -1 498.78 37.61
-5 2 0 1675.2 66.25
-5 2 5 31.82 8.2
-5 2 6 221.18 19.28
-5 2 8 -11.96 7.89
-5 2 9 502.77 32.81
-5 2 10 1058.12 50.47
-5 2 11 583.61 39.54
-5 2 12 188 24.38
-5 2 13 -2.57 11.34
-5 2 14 202.82 28.79
-5 2 15 -3.19 11.1
-5 3 -2 64.18 16.08
-5 3 -1 1275.94 60.02
-5 3 0 902.88 45.8
-5 3 1 993.44 43.9
-5 3 4 3253.93 93.43
-5 3 5 32.92 13.23
-5 3 6 1335.03 56.52
-5 3 11 261.89 20.03
-5 3 12 17.76 7.15
-5 3 13 577.59 36.85
-5 4 -1 309.33 29.41
-5 4 0 421.61 30.92
-5 4 1 3154.67 81.92
-5 4 3 920.92 53.04
-5 4 4 259.86 28.16
-5 4 5 732.01 47.3
-5 4 6 271.55 29.62
-5 5 -6 8.03 7.26
-5 5 -1 147.99 20.92
-5 5 0 356.77 29.1
-5 5 1 9.88 6.17
-5 5 3 143.33 23.76
-5 5 4 329.12 34.67
-5 5 5 334.02 34.74
-5 5 6 144.87 23.69
-5 6 -5 87.97 18.46
-5 6 -1 648.39 46.12
-5 6 0 85.77 17.06
-5 6 1 826.95 39.62
-5 6 2 432.75 21.35
-5 6 2 839.12 59.68
-5 6 3 408.98 43.42
-5 6 4 754.54 56.79
-5 6 5 98.77 25.28
-5 6 6 355.26 40.41
-5 6 7 493.24 47.09
-5 7 -4 748.89 60
-5 7 2 165.98 30.62
-5 7 3 781.98 61.33
-5 7 4 159.39 32.8
-5 7 5 1080.03 73.56
-5 7 6 305.45 41.95
-5 7 7 531.37 52.2
-5 8 -3 266.06 43.31
-5 8 2 1698.08 97.38
-5 8 3 478.01 55.46
-5 8 4 224.96 38.75
-5 8 5 688.39 63.26
-5 8 6 122.51 29.51
-5 8 7 101.16 26.72
-5 8 8 8.03 14.41
-5 9 -2 210.1 43.77
-5 9 2 56.03 24.1
-5 9 3 128.36 30.11
-5 9 4 140.82 33.19
-5 9 5 31.72 18.96
-5 9 6 459.94 53.62
-5 9 7 74.65 29.04
-5 9 8 529.44 60.96
-5 9 9 220.31 42.14
-5 10 0 284.34 55.94
-5 10 2 305.85 46.84
-5 10 3 390.21 52.97
-5 10 4 214.36 42.88
-5 10 5 408.56 55.63
-5 10 6 109.97 34.84
-5 10 7 333.67 50.27
-5 10 8 34.23 23.95
-5 10 9 321.17 50.61
-5 10 10 214.82 43.62
-5 11 1 144.93 44.36
-5 11 2 266.97 47.28
-5 11 2 205.2 53.68
-5 11 3 105.97 37.59
-5 11 4 565.77 69.79
-5 11 5 215.02 47.12
-5 11 6 390.84 55.96
-5 11 7 242.05 46.16
-5 11 8 292.74 51.51
-5 11 9 362.75 57.17
-5 11 10 50.18 24.98
-5 11 11 150.51 39.9
-5 11 12 29.45 26.29
-5 12 3 429.23 76.84
-5 12 3 389.62 61.38
-5 12 4 227.25 45.71
-5 12 4 95.48 32.84
-5 12 5 155.55 40.34
-5 12 6 180.85 42.64
-5 12 7 104.54 33.47
-5 12 8 159.1 41.02
-5 12 9 67.16 35.26
-5 12 10 280.17 52.65
-5 12 11 40.43 26.56
-5 12 12 162.32 44.45
-5 12 13 39.1 27.23
-5 12 14 91.96 32.24
-5 13 4 79.57 32.87
-5 13 5 116 35.29
-5 13 5 111.83 51.18
-5 13 6 73.74 50.86
-5 13 6 44.77 29.98
-5 13 7 148.8 39.26
-5 13 7 186.14 58.88
-5 13 8 28.21 24.11
-5 13 9 87.08 35.34
-5 13 10 95.48 34.16
-5 13 11 10.9 18.75
-5 13 12 75.85 37.43
-5 13 13 11.93 23.1
-5 13 14 110.19 42.43
-5 14 4 296.36 55.53
-5 14 5 105.43 35.75
-5 14 6 139.62 40.95
-5 14 7 43.77 27.28
-5 14 7 4.17 36.28
-5 14 8 22.76 46.1
-5 14 8 34.22 21.71
-5 14 9 6.03 34.55
-5 14 9 56.09 25.42
-4 -17 -2 71.97 38.44
-4 -16 -4 98.1 42.42
-4 -16 -3 207.57 51.12
-4 -16 -2 224.12 57.93
-4 -16 -1 83.65 45.04
-4 -16 0 139.23 46.23
-4 -16 1 56.87 37.19
-4 -16 2 170.91 49.34
-4 -15 -5 167.51 49.55
-4 -15 -4 201.27 54.22
-4 -15 -3 116.85 39.16
-4 -15 -2 76.82 37.18
-4 -15 -1 353.5 65.62
-4 -15 0 66.8 34.47
-4 -15 1 252.32 59.14
-4 -15 2 18.63 30.45
-4 -15 3 134.08 42.07
-4 -15 4 163.64 50.43
-4 -15 5 38.57 33.72
-4 -15 6 49.94 30.41
-4 -14 -5 109.93 38.93
-4 -14 -4 228.29 52.16
-4 -14 -3 42.74 27.78
-4 -14 -2 432.99 67.91
-4 -14 -1 111.09 42.73
-4 -14 0 142.19 46.31
-4 -14 1 56.99 32.29
-4 -14 2 75.05 35.76
-4 -14 3 57.28 35.67
-4 -14 4 1.38 31.92
-4 -14 5 75.3 33.78
-4 -14 6 1.29 23.23
-4 -14 7 64.81 29.91
-4 -14 8 76.05 38.97
-4 -13 -5 189.18 49
-4 -13 -4 65.41 28.89
-4 -13 -3 325.17 60.56
-4 -13 -2 105.79 37.69
-4 -13 -1 173.03 46.4
-4 -13 0 197.08 50.31
-4 -13 1 19.84 26.41
-4 -13 2 315.57 63.78
-4 -13 3 26.71 31.28
-4 -13 4 235.09 58.09
-4 -13 5 197.34 49.59
-4 -13 6 113.08 47.26
-4 -13 7 49.84 32.06
-4 -13 8 -3.71 26.59
-4 -13 9 256.23 62.8
-4 -13 10 62.57 41.49
-4 -13 11 186.77 55.73
-4 -12 -5 12.1 17.23
-4 -12 -4 225.89 47.93
-4 -12 -3 164.65 38.08
-4 -12 -2 192.8 47.24
-4 -12 -1 275.4 54.63
-4 -12 0 40.57 30.22
-4 -12 1 206.55 48.13
-4 -12 2 -20.87 28.21
-4 -12 3 213.69 49.91
-4 -12 4 125.61 42.56
-4 -12 5 42.78 30.04
-4 -12 6 204.99 47.03
-4 -12 7 20.61 29.25
-4 -12 8 333.72 65.74
-4 -12 9 5.22 21.29
-4 -12 10 201.1 51.57
-4 -12 11 -29.1 31.05
-4 -12 12 173.22 54.97
-4 -12 13 121.34 45.87
-4 -11 -13 51.14 28.88
-4 -11 -12 318.64 54.26
-4 -11 -11 360.07 57.08
-4 -11 -10 10.68 20.6
-4 -11 -5 267.35 50.54
-4 -11 -4 340.65 56.83
-4 -11 -3 323.17 53.11
-4 -11 -2 182.41 41.77
-4 -11 -1 90.73 34.87
-4 -11 0 416.86 63.61
-4 -11 1 143.22 43.69
-4 -11 2 521.67 70.9
-4 -11 3 150.76 40.69
-4 -11 4 421.52 65.88
-4 -11 5 384.12 62.59
-4 -11 6 59.96 30.58
-4 -11 7 356.4 63.34
-4 -11 8 173.3 44.1
-4 -11 9 245.44 57.4
-4 -11 10 178.81 47.95
-4 -11 11 16.54 24.51
-4 -11 12 316.87 65.89
-4 -11 13 -10.69 21.62
-4 -11 14 85.88 40.84
-4 -11 15 102.9 42.78
-4 -10 -16 92.2 36.17
-4 -10 -15 360.35 59.47
-4 -10 -14 90.76 35.24
-4 -10 -13 214.61 46.52
-4 -10 -12 509.7 64.58
-4 -10 -11 125.77 32.73
-4 -10 -10 897.54 81.66
-4 -10 -9 77.44 28.31
-4 -10 -5 550.39 65.08
-4 -10 -4 2.45 22.5
-4 -10 -3 782.04 76.96
-4 -10 -2 7.63 22.29
-4 -10 -1 409.77 56.66
-4 -10 0 441.46 61.1
-4 -10 1 686.86 75.05
-4 -10 2 268.17 51.86
-4 -10 3 229.14 50.45
-4 -10 4 1516.31 116.13
-4 -10 5 -7.05 19.64
-4 -10 6 735.05 84.87
-4 -10 7 639.82 78.84
-4 -10 8 253.02 53.88
-4 -10 9 427.74 67.16
-4 -10 10 -26.95 27.44
-4 -10 11 392.56 67.99
-4 -10 12 0.68 26.84
-4 -10 13 341.43 65.8
-4 -10 14 8.7 22.13
-4 -10 15 108.58 42.88
-4 -10 16 37.27 26.98
-4 -10 17 5.22 26.35
-4 -9 -18 175.46 44.75
-4 -9 -17 54.49 25.66
-4 -9 -16 200.65 45.18
-4 -9 -15 219.57 46.64
-4 -9 -14 163.24 38.59
-4 -9 -13 349.02 54.42
-4 -9 -12 24.43 16.97
-4 -9 -11 224.87 41.55
-4 -9 -10 6.98 20.3
-4 -9 -9 306.95 44.97
-4 -9 -8 36.89 22.78
-4 -9 -4 488.57 58.14
-4 -9 -3 9.89 20.42
-4 -9 -2 22.23 18.68
-4 -9 -1 28.33 19.66
-4 -9 0 5.07 19.89
-4 -9 1 500.23 61.05
-4 -9 2 249.28 51.36
-4 -9 3 1354.27 102.34
-4 -9 4 413.92 58.45
-4 -9 5 43.86 28.17
-4 -9 6 209.35 42.86
-4 -9 7 51.31 25.28
-4 -9 8 105.51 32.45
-4 -9 9 18.72 23.56
-4 -9 10 331.88 57.04
-4 -9 11 15.23 21.08
-4 -9 12 156.4 46.37
-4 -9 13 168.94 46.1
-4 -9 14 168.78 43.29
-4 -9 15 142.22 49.34
-4 -9 16 37.13 31.61
-4 -9 17 122.84 47.05
-4 -9 18 78.97 40.05
-4 -8 -20 51.88 30.18
-4 -8 -19 201.33 54.38
-4 -8 -18 179.72 45.96
-4 -8 -17 90.96 32.04
-4 -8 -16 276.1 49.18
-4 -8 -15 42.64 23.57
-4 -8 -14 251.2 45.03
-4 -8 -13 9.22 17.27
-4 -8 -12 949.37 80.18
-4 -8 -11 78.56 23.88
-4 -8 -10 129.09 29.25
-4 -8 -9 405.8 48.06
-4 -8 -8 329.51 42.17
-4 -8 -7 176.08 29.19
-4 -8 -4 269.54 44.26
-4 -8 -3 540.31 60.23
-4 -8 -2 1388.69 94.96
-4 -8 -1 354.85 49.14
-4 -8 0 1180.29 88.52
-4 -8 1 80.86 28.44
-4 -8 2 1850.22 112.91
-4 -8 3 322.64 47.4
-4 -8 4 246.09 42.54
-4 -8 5 165.16 35.99
-4 -8 6 9.32 16.9
-4 -8 7 572.68 68.49
-4 -8 8 36.86 24.89
-4 -8 9 392.27 59.54
-4 -8 10 452.05 64.05
-4 -8 11 243.19 50.99
-4 -8 12 98.43 38.68
-4 -8 13 16.75 23.79
-4 -8 14 217.11 49.41
-4 -8 15 58.1 29.11
-4 -8 16 177.75 51.04
-4 -8 17 57.64 30.4
-4 -8 18 54.09 32.63
-4 -8 19 108.51 44.05
-4 -8 20 4.98 25.11
-4 -7 -22 195.73 52.58
-4 -7 -21 48.23 28.5
-4 -7 -20 123.57 38.32
-4 -7 -19 177.1 43.84
-4 -7 -18 34.95 26.71
-4 -7 -17 391.25 61.93
-4 -7 -16 -20.04 21.26
-4 -7 -15 498.95 61.92
-4 -7 -14 111.67 31.03
-4 -7 -13 240.32 42.26
-4 -7 -12 275.38 42.06
-4 -7 -11 26.16 17.06
-4 -7 -10 350.46 43.22
-4 -7 -9 153.48 28.1
-4 -7 -8 958.6 65.91
-4 -7 -7 501.45 47.34
-4 -7 -6 1139.63 68.21
-4 -7 -4 287.46 43.23
-4 -7 -3 735.42 68.1
-4 -7 -2 32.65 19.36
-4 -7 -1 528.76 55.04
-4 -7 0 136.89 30.4
-4 -7 1 677 64.99
-4 -7 2 297.01 44.09
-4 -7 3 443.47 54.55
-4 -7 4 1753.29 107.32
-4 -7 5 491.27 58.24
-4 -7 6 906.72 80.23
-4 -7 7 114.6 29.76
-4 -7 8 482.29 61.93
-4 -7 9 -15.1 23.81
-4 -7 10 167.1 38.2
-4 -7 11 233.34 44.65
-4 -7 12 45.01 27.55
-4 -7 13 730.36 84.38
-4 -7 14 1.75 19.68
-4 -7 15 319.46 59.12
-4 -7 16 15.45 22.66
-4 -7 17 113.65 43.46
-4 -7 18 111.94 40.76
-4 -7 19 47.58 32.61
-4 -7 20 183.14 53.84
-4 -7 21 -19.02 27.69
-4 -6 -24 107.37 49.41
-4 -6 -23 27.07 29.69
-4 -6 -22 7.71 19.37
-4 -6 -21 32.7 28.71
-4 -6 -20 96.62 32.16
-4 -6 -19 77.63 32.2
-4 -6 -18 440.03 63.26
-4 -6 -17 -10.75 25.59
-4 -6 -16 224.76 43.15
-4 -6 -15 320.7 50.24
-4 -6 -14 151.06 32.99
-4 -6 -13 287.23 43.51
-4 -6 -12 1.78 16.49
-4 -6 -11 930.64 68.52
-4 -6 -10 13.5 13.02
-4 -6 -9 1134.14 69.1
-4 -6 -8 138.16 23.24
-4 -6 -7 547.37 43.18
-4 -6 -6 159.83 24.02
-4 -6 -5 267.13 28.56
-4 -6 -3 123.72 29.93
-4 -6 -2 3759.12 145.72
-4 -6 -1 448.72 49.77
-4 -6 0 1127.8 78.29
-4 -6 1 1477.26 89.03
-4 -6 2 434.6 48.59
-4 -6 3 43.81 19.17
-4 -6 4 206.95 35.4
-4 -6 5 718.06 65.71
-4 -6 6 85.2 25.88
-4 -6 7 249.36 41.92
-4 -6 8 1024.42 82.84
-4 -6 9 476.04 59.07
-4 -6 10 578.67 67.06
-4 -6 11 51.63 23.82
-4 -6 12 309.26 52.93
-4 -6 13 22.58 23.01
-4 -6 14 260.06 51.02
-4 -6 15 163.3 43.94
-4 -6 16 88.72 32.57
-4 -6 17 291 61.54
-4 -6 18 5.72 22.93
-4 -6 19 15.79 19.56
-4 -6 20 -16.02 22.83
-4 -6 21 7.56 33.31
-4 -6 22 9.66 21.81
-4 -5 -25 49.72 36.88
-4 -5 -24 61.25 35.3
-4 -5 -23 47.03 33.41
-4 -5 -22 37.43 24.35
-4 -5 -21 49.77 33.97
-4 -5 -20 5.04 22.12
-4 -5 -19 177.91 41.84
-4 -5 -18 -13.13 22.8
-4 -5 -17 43.59 24.96
-4 -5 -16 12.43 16.3
-4 -5 -15 355.21 50.43
-4 -5 -14 217.15 37.16
-4 -5 -13 270.11 42.07
-4 -5 -12 730.04 62.77
-4 -5 -11 335.75 39.94
-4 -5 -10 364.17 40.17
-4 -5 -9 310.49 34.4
-4 -5 -8 34.62 13.58
-4 -5 -7 875.76 50.37
-4 -5 -6 529.26 36.55
-4 -5 -5 1508.07 60.52
-4 -5 -2 836.51 65.71
-4 -5 -1 212.25 36.07
-4 -5 0 211.2 36.52
-4 -5 1 434.29 46.69
-4 -5 2 1700.08 91.97
-4 -5 3 136.82 31.01
-4 -5 4 767.59 63.02
-4 -5 5 1023.57 74.52
-4 -5 6 360.27 45.6
-4 -5 7 179.36 33.88
-4 -5 8 278.88 42.06
-4 -5 9 728.91 68.19
-4 -5 10 51.37 24.41
-4 -5 11 301.45 48.51
-4 -5 12 688.03 74.22
-4 -5 13 27.27 21.32
-4 -5 14 288.11 51.32
-4 -5 15 12.34 21.69
-4 -5 16 158.37 44.13
-4 -5 17 5.7 19.01
-4 -5 18 67.85 35.21
-4 -5 19 -18.69 19.76
-4 -5 20 26.95 23.75
-4 -5 21 83.38 31.35
-4 -5 22 40.82 33.53
-4 -5 23 240.73 60.96
-4 -4 -26 86.6 42.67
-4 -4 -25 198.68 58.04
-4 -4 -24 208.91 53.78
-4 -4 -23 -54.82 31.64
-4 -4 -22 82.07 34.97
-4 -4 -21 30.36 26.9
-4 -4 -20 229.2 50.19
-4 -4 -19 30.43 20.99
-4 -4 -18 443.4 62.15
-4 -4 -17 241.35 44.7
-4 -4 -16 232.93 45.39
-4 -4 -15 523.14 61.08
-4 -4 -14 -11.32 16.8
-4 -4 -13 795.74 67.39
-4 -4 -12 686.84 59.07
-4 -4 -11 1106.42 70.98
-4 -4 -10 1347.43 74.65
-4 -4 -9 3.84 9.41
-4 -4 -8 3288.08 105.04
-4 -4 -7 125.93 18.03
-4 -4 -6 56.09 12.63
-4 -4 -5 603.21 31.05
-4 -4 -4 573.97 26.18
-4 -4 -2 405.33 44.11
-4 -4 -1 7062.96 192
-4 -4 0 1029.49 67.83
-4 -4 1 2656.5 109.82
-4 -4 2 92.14 23.81
-4 -4 3 622.78 51.71
-4 -4 4 216.85 33.67
-4 -4 5 365.48 42.83
-4 -4 6 807.11 63.75
-4 -4 7 37.82 17.44
-4 -4 8 2736.01 124.6
-4 -4 9 24.19 19.18
-4 -4 10 854.86 73.38
-4 -4 11 317.48 15.04
-4 -4 11 594.02 62.42
-4 -4 12 538.84 62.4
-4 -4 13 233.1 44.94
-4 -4 14 -22.02 17.83
-4 -4 15 551.79 68.87
-4 -4 16 215.45 46.36
-4 -4 17 241.35 53.63
-4 -4 18 341.89 62.15
-4 -4 19 142.58 45.81
-4 -4 20 99.64 38.72
-4 -4 21 -16.18 20.71
-4 -4 22 188.72 49.6
-4 -4 23 -15.43 27.26
-4 -4 24 75.6 32.69
-4 -3 -26 21.27 30.42
-4 -3 -25 32.86 28.63
-4 -3 -24 29.21 32.7
-4 -3 -23 142.64 47.03
-4 -3 -22 16.19 20.61
-4 -3 -21 73.68 29.27
-4 -3 -20 34.81 27.93
-4 -3 -19 59.62 29.95
-4 -3 -5 2257.67 61.33
-4 -3 -4 4507.29 81.18
-4 -3 -1 533.99 46.07
-4 -3 0 4474.06 138.79
-4 -3 1 873.78 58.54
-4 -3 2 1950.28 88.14
-4 -3 3 6191.22 170.13
-4 -3 4 407.1 40.99
-4 -3 5 4864.98 150.65
-4 -3 6 334.59 39.24
-4 -3 7 3532.43 92.34
-4 -3 7 3984.96 139.29
-4 -3 8 564.5 35.6
-4 -3 8 609.31 55.26
-4 -3 9 403.94 31.97
-4 -3 9 483.14 49.6
-4 -3 10 191.99 15.02
-4 -3 10 198.79 34.87
-4 -3 11 53.55 9.98
-4 -3 11 95.79 27.08
-4 -3 12 922.64 76.08
-4 -3 12 739.73 38.72
-4 -3 13 6.39 17.19
-4 -3 14 455.66 56.23
-4 -3 15 217.12 42.89
-4 -3 16 205.99 42.47
-4 -3 17 77.62 31.75
-4 -3 18 2.46 20.98
-4 -3 19 149 38.5
-4 -3 20 -9.71 19.39
-4 -3 21 164.01 45.86
-4 -3 22 99.26 40.17
-4 -3 23 5.66 21.9
-4 -3 24 51.51 34.16
-4 -2 -25 -41.93 31.92
-4 -2 -24 217.79 60.42
-4 -2 -6 33.56 15.99
-4 -2 -5 23.9 15.2
-4 -2 -4 34.91 15.2
-4 -2 -3 1615.07 85.67
-4 -2 0 740.67 49.8
-4 -2 1 619.94 45.96
-4 -2 2 4086.58 123.66
-4 -2 3 297.92 31.45
-4 -2 4 52.65 16.85
-4 -2 5 152.87 24.21
-4 -2 6 50.79 16.53
-4 -2 7 30.94 8.84
-4 -2 7 33.7 12.82
-4 -2 8 8.21 5.72
-4 -2 8 12.77 12.65
-4 -2 8 9.03 6.09
-4 -2 9 1276.59 47.68
-4 -2 9 1389.76 79.2
-4 -2 10 302.56 40.74
-4 -2 10 225.12 21.28
-4 -2 11 702.86 60.38
-4 -2 11 664.93 39.74
-4 -2 12 -3.83 6.24
-4 -2 12 0.76 14.21
-4 -2 13 283.21 43.32
-4 -2 13 234.27 27.46
-4 -2 14 135.75 33.49
-4 -2 15 235.17 42.55
-4 -2 16 293.07 50.92
-4 -2 17 -14.88 22.52
-4 -2 18 520.85 68.02
-4 -2 19 -20.54 25.03
-4 -2 20 216.54 48.68
-4 -2 21 104.69 38.96
-4 -2 22 34.96 29.94
-4 -2 23 249.43 53.59
-4 -1 -6 3641.79 121.22
-4 -1 -5 296.22 34.81
-4 -1 -4 6240.36 167.6
-4 -1 -2 1551.72 53.53
-4 -1 -2 1589.94 71.13
-4 -1 -1 1239.59 44.02
-4 -1 -1 1073.27 55.85
-4 -1 0 15.12 6.52
-4 -1 1 1280.1 49.29
-4 -1 2 74.65 17.11
-4 -1 3 4073.77 115.85
-4 -1 4 2778.51 93.43
-4 -1 5 796.54 49.39
-4 -1 6 3474.43 110.13
-4 -1 7 186.21 19.17
-4 -1 7 220.1 28.74
-4 -1 8 1328.61 54.11
-4 -1 8 1312.17 69.26
-4 -1 9 301.8 26.59
-4 -1 9 352.71 37.3
-4 -1 10 814.55 46.83
-4 -1 10 808.18 58.74
-4 -1 11 23.09 10.18
-4 -1 11 10.6 11.6
-4 -1 12 7.55 14.6
-4 -1 13 434.28 49.69
-4 -1 14 117.81 30.98
-4 -1 15 285.14 44.2
-4 -1 16 14.45 17.64
-4 -1 17 606.11 66.03
-4 -1 18 -7.77 16.21
-4 -1 19 121 35.16
-4 -1 20 206.01 45.45
-4 -1 21 -5.51 23.01
-4 -1 22 123.88 36.49
-4 0 -6 285.84 28.9
-4 0 -5 84.38 16.81
-4 0 -3 337.64 33.33
-4 0 -2 1850.69 73.89
-4 0 -2 1819.73 71.85
-4 0 -1 47 13.63
-4 0 -1 24.91 9.17
-4 0 0 3848.44 105.18
-4 0 1 206.9 22.98
-4 0 2 1290.28 59.57
-4 0 3 979.62 47.54
-4 0 3 988.8 54.1
-4 0 4 1100.2 50.67
-4 0 4 1058.76 59.83
-4 0 5 91.27 16.94
-4 0 6 316.07 28.67
-4 0 6 268.58 26.08
-4 0 7 2706.95 87.75
-4 0 7 2633.94 89.3
-4 0 8 451.07 35.2
-4 0 8 479.74 37.81
-4 0 9 1858.65 79.46
-4 0 10 496.63 42.42
-4 0 11 154.72 25.5
-4 0 12 284.95 36.47
-4 0 13 348.78 41.69
-4 0 14 423.67 48.2
-4 0 15 59.77 22.34
-4 0 16 582.42 62.07
-4 0 17 197.53 38.84
-4 0 18 137.04 36.09
-4 0 19 127.49 34.17
-4 0 20 -3.66 16.06
-4 1 -6 418.06 28.64
-4 1 -3 3103.52 102.66
-4 1 -2 43.46 14.04
-4 1 -2 46.93 12.79
-4 1 -1 128.36 18.5
-4 1 -1 93.17 20.86
-4 1 0 756.13 39.73
-4 1 0 722.07 50.51
-4 1 1 1150.3 61.82
-4 1 2 20.62 11.91
-4 1 3 97.58 19.39
-4 1 4 2441.11 55.51
-4 1 5 506.17 31.03
-4 1 6 1032.43 45.86
-4 1 7 309.77 25.98
-4 1 8 1664.52 64.28
-4 1 9 1025.68 52.57
-4 1 10 142.37 20.99
-4 1 11 733.25 49.88
-4 1 12 1.3 10.24
-4 1 13 381.36 40.67
-4 1 14 406.71 43.42
-4 1 15 53.13 19.97
-4 1 16 783.04 66.85
-4 1 17 146.91 31.92
-4 1 18 137.11 32.29
-4 1 19 -28.23 19.08
-4 2 -3 173.44 24.79
-4 2 -2 605.52 39.8
-4 2 -1 2254.17 74.01
-4 2 0 375.17 26.54
-4 2 1 1222.84 44.83
-4 2 3 1893.78 58.86
-4 2 4 13.86 8.42
-4 2 7 592.7 28.68
-4 2 8 2564.65 70.27
-4 2 9 21.9 9.3
-4 2 10 2505.27 79.8
-4 2 11 220.67 24.71
-4 2 12 618.93 43
-4 2 13 644.16 47.54
-4 2 14 281.96 34.86
-4 2 15 283.66 37.3
-4 2 16 93.4 24.52
-4 2 17 487.94 51.06
-4 3 -2 1073.44 54.38
-4 3 -1 1276.95 54.77
-4 3 -1 1766.16 73.08
-4 3 0 239.28 21.22
-4 3 1 4.99 6.09
-4 3 2 491.4 34.79
-4 3 3 1300.38 55.98
-4 3 4 715.72 40.81
-4 3 9 327.86 17.3
-4 3 10 188.05 15.78
-4 3 11 568.22 32.2
-4 3 12 230.1 23.15
-4 3 13 104.27 18.14
-4 3 14 1307.51 65.78
-4 3 15 22.9 14.82
-4 4 -4 218.02 23.6
-4 4 -3 566.36 41.14
-4 4 -2 247.28 26.55
-4 4 -1 3416.89 99.01
-4 4 0 81.66 13.62
-4 4 1 4614.81 126.61
-4 4 1 4304.56 92.4
-4 4 2 2883.55 98.12
-4 4 3 878.24 51.65
-4 4 4 1141.2 58.9
-4 4 12 44.72 8.39
-4 4 13 366.1 25.19
-4 5 -6 249.97 25.1
-4 5 -5 471.22 33.7
-4 5 -5 658.04 43.69
-4 5 -4 970.43 57.04
-4 5 -1 13.54 7.17
-4 5 0 329.19 26.97
-4 5 1 1336.82 69.55
-4 5 1 1088.19 43.42
-4 5 2 432.4 40.85
-4 5 2 361.94 18.59
-4 5 3 612.59 46.91
-4 5 4 487.1 42.24
-4 6 -6 216.46 27.41
-4 6 -5 373.49 34.43
-4 6 -4 46.14 15.68
-4 6 -1 378.25 34.8
-4 6 0 262.78 26.05
-4 6 1 35.79 15.85
-4 6 1 11.56 7.08
-4 6 2 430.06 24.16
-4 6 2 529.83 46.73
-4 6 3 28.98 17.54
-4 6 4 510.27 46.57
-4 6 5 732.88 56.11
-4 7 -5 130.26 24.75
-4 7 -4 1244.56 76.52
-4 7 -3 568.97 54.04
-4 7 0 204.79 31.44
-4 7 0 121.97 20.18
-4 7 1 261.65 25.46
-4 7 1 314.25 39.49
-4 7 2 57.15 11.02
-4 7 2 103.38 26.66
-4 7 3 314.52 39.33
-4 7 3 209.59 15.06
-4 7 4 727.53 59.69
-4 7 5 270.32 39.41
-4 8 -4 888.64 69.83
-4 8 -3 34.64 17.82
-4 8 -2 301.28 46.59
-4 8 0 479.12 52.3
-4 8 1 83.14 24.99
-4 8 2 160.21 30.76
-4 8 3 303.18 41.25
-4 8 4 867.63 68.99
-4 8 5 414.59 50.71
-4 8 6 352.41 45.96
-4 9 -3 1505.3 104.24
-4 9 -2 242.59 44.37
-4 9 -1 1406.91 107.21
-4 9 0 710.29 69.13
-4 9 0 580.12 72.01
-4 9 1 306.7 44.57
-4 9 2 871.53 74.06
-4 9 3 375.33 51.28
-4 9 4 1436.14 95.28
-4 9 5 576.12 63.61
-4 9 6 1731.99 106.89
-4 9 7 1023.59 83.51
-4 10 -2 303.22 51.19
-4 10 -1 213.59 48.4
-4 10 0 182.23 47.17
-4 10 1 482.85 73.24
-4 10 1 450.39 55.79
-4 10 2 155.48 35.79
-4 10 3 526.81 61.69
-4 10 4 213.49 43.06
-4 10 5 175.46 36.22
-4 10 6 355.29 51.83
-4 10 7 97.37 30.62
-4 10 8 39.74 21.35
-4 11 0 398.71 65.59
-4 11 1 145.21 37.66
-4 11 1 39.83 22.49
-4 11 2 384.78 56.76
-4 11 2 369.04 66.54
-4 11 3 224.65 45.37
-4 11 3 153.88 47.63
-4 11 4 308.22 52.21
-4 11 5 411.35 58.52
-4 11 6 144.98 41.41
-4 11 7 454.19 61.64
-4 11 8 84.57 30.61
-4 11 9 414.53 58.47
-4 12 1 484.43 79.75
-4 12 1 550.26 70.28
-4 12 2 323.7 66.43
-4 12 2 446.57 63.64
-4 12 3 131.07 51.39
-4 12 3 356.67 59.54
-4 12 4 531.09 89.99
-4 12 4 794.45 84.55
-4 12 5 149.05 53.7
-4 12 5 231.32 50.33
-4 12 6 523.33 92.74
-4 12 6 440.95 62.34
-4 12 7 177.4 47.7
-4 12 8 311.57 56.33
-4 12 9 88.29 32.89
-4 12 10 115.22 37.52
-4 12 11 193.61 44.61
-4 13 2 122.92 37.36
-4 13 3 125.08 42.37
-4 13 3 187.45 43.59
-4 13 4 119.76 40.84
-4 13 4 68.88 35.94
-4 13 5 477.59 66.81
-4 13 5 371.78 74.7
-4 13 6 101.95 48.84
-4 13 6 126.83 40.17
-4 13 7 155.84 53.66
-4 13 7 124.04 39.24
-4 13 8 122.23 39.47
-4 13 8 148.94 59.56
-4 13 9 64.94 50.81
-4 13 9 15.88 21.93
-4 13 10 88.04 52.07
-4 13 10 80.52 29.45
-4 13 11 45.4 27.55
-4 13 12 283.14 58.56
-4 13 13 -9.03 23
-4 14 2 165.36 43.66
-4 14 3 128.12 38.56
-4 14 4 99.77 34.8
-4 14 5 30.55 35.25
-4 14 5 64.54 30.96
-4 14 6 17.72 39.07
-4 14 6 47.01 28.6
-4 14 7 56.95 25.45
-4 14 7 151.37 61.93
-4 14 8 60.67 43.95
-4 14 8 49.57 35.57
-4 14 9 92.42 30.94
-4 14 9 112.5 57.26
-4 14 10 57.46 53.47
-4 14 10 39.23 28.08
-4 14 11 132.94 40.35
-4 15 7 44.61 36.65
-3 -16 -2 152.79 48.7
-3 -16 -1 20.38 30.26
-3 -16 0 31.9 21.92
-3 -16 1 16.48 35.89
-3 -16 2 -6.69 32.51
-3 -16 3 139.44 56.76
-3 -15 -5 111.36 41.87
-3 -15 -4 24.52 24.56
-3 -15 -3 311.89 63.64
-3 -15 -2 102.53 38.65
-3 -15 -1 168.62 46.03
-3 -15 0 105.49 29.29
-3 -15 1 13.86 23.6
-3 -15 2 152.02 42.88
-3 -15 3 23.32 21.81
-3 -15 4 194.06 52.86
-3 -15 5 51.86 38.69
-3 -15 6 235.57 61.42
-3 -14 -5 109.54 41.98
-3 -14 -4 158.67 45.9
-3 -14 -3 121.96 42.83
-3 -14 -2 167.43 43.79
-3 -14 -1 161.39 47.93
-3 -14 0 89.16 31.16
-3 -14 1 152.59 45.78
-3 -14 2 20.93 25.55
-3 -14 3 282.97 62.1
-3 -14 4 64.77 27.94
-3 -14 5 147.38 49.51
-3 -14 6 149.54 49.5
-3 -14 7 -23.86 23.56
-3 -14 8 62.36 32.79
-3 -14 9 50.18 28.22
-3 -13 -5 76.16 32.03
-3 -13 -4 51.92 27.47
-3 -13 -3 4.34 20.8
-3 -13 -2 19.57 18.16
-3 -13 -1 8.68 25.36
-3 -13 0 170.82 43.12
-3 -13 1 63.41 37.21
-3 -13 2 260.54 56.87
-3 -13 3 109.27 36.86
-3 -13 4 301.89 59.14
-3 -13 5 71.76 31.67
-3 -13 6 9.65 24.09
-3 -13 7 118.49 39.07
-3 -13 8 7.01 24.3
-3 -13 9 137.62 50.07
-3 -13 10 94.22 43.47
-3 -13 11 -1.69 30.19
-3 -12 -15 276.13 59.4
-3 -12 -14 60.69 35.02
-3 -12 -13 262.28 55.29
-3 -12 -12 193.74 48.28
-3 -12 -11 292.83 56.28
-3 -12 -5 173.3 39.89
-3 -12 -4 185.47 44.8
-3 -12 -3 203.56 43.11
-3 -12 -2 -0.19 20.31
-3 -12 -1 184.61 42.53
-3 -12 0 228.16 46.3
-3 -12 1 178.3 44.66
-3 -12 2 526.15 71.12
-3 -12 3 84.4 38.06
-3 -12 4 364.18 62.17
-3 -12 5 140.79 40.79
-3 -12 6 366.79 65.54
-3 -12 7 290.73 55.88
-3 -12 8 79.14 37.54
-3 -12 9 183.48 51.15
-3 -12 10 24.09 23.58
-3 -12 11 329.04 69.6
-3 -12 12 43.71 31.69
-3 -12 13 306.1 68.1
-3 -11 -17 309.63 65.81
-3 -11 -16 183.34 49.71
-3 -11 -15 535.21 77.63
-3 -11 -14 104.1 41.53
-3 -11 -13 236.92 49.9
-3 -11 -12 59.43 30.16
-3 -11 -11 329.84 54.26
-3 -11 -10 72.53 26.71
-3 -11 -9 398 60.38
-3 -11 -5 111.72 34.2
-3 -11 -4 397.87 56.68
-3 -11 -3 7.17 19.76
-3 -11 -2 365.63 57.05
-3 -11 -1 233.17 45.32
-3 -11 0 29.4 28.97
-3 -11 1 527.06 66.95
-3 -11 2 129.37 43.48
-3 -11 3 815.08 86.94
-3 -11 4 64.87 33.68
-3 -11 5 660.65 79.56
-3 -11 6 313.38 56.36
-3 -11 7 105.04 37.87
-3 -11 8 171.98 42.94
-3 -11 9 6.14 19.06
-3 -11 10 241.59 55.93
-3 -11 11 -25.58 25.94
-3 -11 12 388.55 74.24
-3 -11 13 -7 25.14
-3 -11 14 461.35 78.43
-3 -11 15 -27.22 34.35
-3 -10 -20 18.26 31.67
-3 -10 -19 139.46 44.04
-3 -10 -18 47.32 29.09
-3 -10 -17 70.13 30.54
-3 -10 -16 25.36 24.52
-3 -10 -15 29.17 25.14
-3 -10 -14 158.32 42.12
-3 -10 -13 8.47 18.6
-3 -10 -12 208.12 46.47
-3 -10 -11 -2.02 16.92
-3 -10 -10 329.14 52.68
-3 -10 -9 256.21 45.44
-3 -10 -8 273.73 49.17
-3 -10 -5 940.05 83.89
-3 -10 -4 133.46 33.34
-3 -10 -3 456.37 61.19
-3 -10 -2 774.17 77.84
-3 -10 -1 210.52 44
-3 -10 0 829.62 79.93
-3 -10 1 53.3 25.39
-3 -10 2 849.29 84.36
-3 -10 3 404.7 60.53
-3 -10 4 545.74 69.28
-3 -10 5 445.57 64.79
-3 -10 6 20.09 20.73
-3 -10 7 443.54 66.28
-3 -10 8 74.8 32.44
-3 -10 9 100.99 38.5
-3 -10 10 110.38 38.24
-3 -10 11 111.75 37.62
-3 -10 12 19.87 20.2
-3 -10 13 -1.42 28.09
-3 -10 14 183.31 50.59
-3 -10 15 0.89 25
-3 -10 16 141.13 46.69
-3 -10 17 -48.24 28.13
-3 -9 -22 183.89 47.67
-3 -9 -21 -9.19 20.78
-3 -9 -20 111.67 43.56
-3 -9 -19 124.53 38.89
-3 -9 -18 -13.82 23.28
-3 -9 -17 251.69 51.79
-3 -9 -16 11.38 18.31
-3 -9 -15 376.62 62.17
-3 -9 -14 -3.11 25.94
-3 -9 -13 95.02 29.88
-3 -9 -12 282.67 48.61
-3 -9 -11 18.49 20.96
-3 -9 -10 272.91 45.03
-3 -9 -9 97.08 28.68
-3 -9 -8 263.22 42.06
-3 -9 -7 422.57 52.66
-3 -9 -5 487 57.38
-3 -9 -4 331.9 47.01
-3 -9 -3 585.92 62.28
-3 -9 -2 181.98 34.79
-3 -9 -1 268.82 44.79
-3 -9 0 431.2 55.55
-3 -9 1 907.74 78.97
-3 -9 2 44.66 24.17
-3 -9 3 450.83 59.22
-3 -9 4 170.78 38.71
-3 -9 5 446.34 59.54
-3 -9 6 260.54 48.78
-3 -9 7 -6.36 22.12
-3 -9 8 519.38 71.04
-3 -9 9 69.72 31.81
-3 -9 10 101.76 35.09
-3 -9 11 65.05 29.77
-3 -9 12 51.78 26.29
-3 -9 13 211.55 51.43
-3 -9 14 -2.56 25.15
-3 -9 15 152.11 47.54
-3 -9 16 63.79 34.48
-3 -9 17 5.83 27.52
-3 -9 18 50.01 34.81
-3 -8 -24 -19.79 26.63
-3 -8 -23 119.86 48.48
-3 -8 -22 115.42 40.48
-3 -8 -21 30.24 32.54
-3 -8 -20 233.14 55.11
-3 -8 -19 46.77 26.24
-3 -8 -18 109.94 36.04
-3 -8 -17 11.47 18.48
-3 -8 -16 254.68 51.6
-3 -8 -15 100.96 34.79
-3 -8 -14 174.08 37.55
-3 -8 -13 425.38 58.41
-3 -8 -12 168.38 38.84
-3 -8 -11 825.65 75.23
-3 -8 -10 -1.62 13.75
-3 -8 -9 1212.5 86.49
-3 -8 -8 431.73 51.24
-3 -8 -7 700.32 63.08
-3 -8 -6 875.18 68.87
-3 -8 -5 119.21 28.91
-3 -8 -4 613.72 60.55
-3 -8 -3 70.18 25.73
-3 -8 -2 472.04 53.05
-3 -8 -1 39.5 19.11
-3 -8 0 271.67 40.77
-3 -8 1 84.17 28.99
-3 -8 2 856.01 73.81
-3 -8 3 315.15 48.75
-3 -8 4 116.37 32.44
-3 -8 5 1877.27 115.46
-3 -8 6 277.72 46.98
-3 -8 7 487.09 61.67
-3 -8 8 621.37 70.86
-3 -8 9 112.45 33.91
-3 -8 10 324.4 54.44
-3 -8 11 40.19 24.61
-3 -8 12 421.48 63.26
-3 -8 13 79.76 32.9
-3 -8 14 157.94 45.85
-3 -8 15 46.41 23.66
-3 -8 16 47.28 23.28
-3 -8 17 240.77 56.09
-3 -8 18 91.27 39.5
-3 -8 19 188 52.75
-3 -8 20 70.52 38.91
-3 -7 -25 -37.17 36.27
-3 -7 -24 -0.63 23.68
-3 -7 -23 5.54 27.43
-3 -7 -22 45.97 25.51
-3 -7 -21 104.63 38.36
-3 -7 -20 77.76 32.8
-3 -7 -19 201.95 43.49
-3 -7 -18 94.32 34.62
-3 -7 -17 246.88 48.84
-3 -7 -16 236.83 46.56
-3 -7 -15 117.64 36.13
-3 -7 -14 756.68 76.41
-3 -7 -13 2.03 15.43
-3 -7 -12 790.5 71.52
-3 -7 -11 48.76 18.65
-3 -7 -10 556.39 55.92
-3 -7 -9 344.04 42.75
-3 -7 -8 471.9 49.8
-3 -7 -7 901.86 65.36
-3 -7 -6 44.76 16.21
-3 -7 -5 547.52 49.08
-3 -7 -4 47.79 16.28
-3 -7 -3 39.94 18.57
-3 -7 -2 620.17 57.93
-3 -7 -1 942.91 71.88
-3 -7 0 313.97 42.13
-3 -7 1 62.76 23.73
-3 -7 2 162.32 33.98
-3 -7 3 73.43 21.88
-3 -7 4 875.72 72.93
-3 -7 5 181.74 36.4
-3 -7 6 350.31 48.16
-3 -7 7 731.19 70.7
-3 -7 8 151.8 35.36
-3 -7 9 566.01 30.26
-3 -7 9 771.37 77.63
-3 -7 10 4.24 16.7
-3 -7 11 817.49 82.54
-3 -7 12 61.48 29.86
-3 -7 13 225.49 47.89
-3 -7 14 212.81 46.29
-3 -7 15 44.91 33.83
-3 -7 16 225.43 53.72
-3 -7 17 13.15 26.17
-3 -7 18 231.68 54.85
-3 -7 19 47.21 29.82
-3 -7 20 42.94 29.65
-3 -7 21 10.84 25.85
-3 -6 -26 49.88 44.9
-3 -6 -25 46.5 34.57
-3 -6 -24 34.95 30.27
-3 -6 -23 21.11 20.56
-3 -6 -22 170.78 49.2
-3 -6 -21 -24.13 28.2
-3 -6 -20 343.12 61.1
-3 -6 -19 48.7 25.37
-3 -6 -18 88.74 28.88
-3 -6 -17 34.2 23.01
-3 -6 -16 27.72 24.5
-3 -6 -15 25.61 19.97
-3 -6 -14 40.2 20.13
-3 -6 -13 328.11 48.11
-3 -6 -12 340.4 45.93
-3 -6 -11 88.53 25.62
-3 -6 -10 844.45 65.52
-3 -6 -9 47.76 17.41
-3 -6 -8 124.75 23.17
-3 -6 -7 36.42 16.23
-3 -6 -6 666.24 50.09
-3 -6 -5 1150.51 65.13
-3 -6 -4 1235.13 67.04
-3 -6 -4 1204.06 77.08
-3 -6 -3 1313.9 80.32
-3 -6 -2 110.36 25.35
-3 -6 -1 1079.86 71.62
-3 -6 0 134.21 26.87
-3 -6 1 1336.4 82.11
-3 -6 2 211.94 36.29
-3 -6 3 2854.82 124.86
-3 -6 4 325.45 43.86
-3 -6 5 17.47 13.59
-3 -6 6 234.69 38.74
-3 -6 7 34.8 19.31
-3 -6 8 323.9 47.39
-3 -6 9 99.21 28.5
-3 -6 9 56.23 8.05
-3 -6 10 494.12 25.33
-3 -6 10 634.68 67.81
-3 -6 11 109.74 12.5
-3 -6 11 156.52 35.62
-3 -6 12 195.7 43.89
-3 -6 13 -0.25 17.02
-3 -6 14 52.22 26.27
-3 -6 15 184.83 41.5
-3 -6 16 -28.83 20.99
-3 -6 17 159.33 40.42
-3 -6 18 196.9 45.91
-3 -6 19 165.13 50.75
-3 -6 20 282.95 61.56
-3 -6 21 21.25 27.23
-3 -6 22 30.58 29.65
-3 -5 -26 73.76 38.7
-3 -5 -25 94.47 41.62
-3 -5 -24 4.24 25.22
-3 -5 -23 27.75 21.21
-3 -5 -22 36.62 31.95
-3 -5 -21 212.69 53.33
-3 -5 -20 18.18 18.66
-3 -5 -19 298.29 54.18
-3 -5 -18 220.18 47.75
-3 -5 -17 135.82 34.57
-3 -5 -16 323.52 50.48
-3 -5 -15 -15.23 21.04
-3 -5 -14 403.16 52.07
-3 -5 -13 83.36 25.5
-3 -5 -12 550.91 55.53
-3 -5 -11 209.44 33.52
-3 -5 -10 4.1 11.62
-3 -5 -9 485.93 44.79
-3 -5 -8 571.35 45.84
-3 -5 -7 1404.44 69.15
-3 -5 -6 417.24 35.85
-3 -5 -5 89.57 16.84
-3 -5 -4 1585.98 67.5
-3 -5 -3 86.32 25.78
-3 -5 -2 5184.24 159.97
-3 -5 -1 50.95 23.4
-3 -5 0 3947.81 136.79
-3 -5 1 1095.38 70.71
-3 -5 2 2497.42 107.51
-3 -5 3 38.2 18.45
-3 -5 4 154.03 28.18
-3 -5 5 1664.34 92.18
-3 -5 6 281.95 40.02
-3 -5 7 597.97 57.71
-3 -5 8 82.87 26.05
-3 -5 9 366.59 48.52
-3 -5 9 229.58 14.3
-3 -5 10 319.91 47.15
-3 -5 11 30.97 19.9
-3 -5 12 524.32 64.27
-3 -5 13 18.9 19.03
-3 -5 14 281.18 50.92
-3 -5 15 76.84 27.48
-3 -5 16 113.88 40.28
-3 -5 17 749.3 87.77
-3 -5 18 38.13 30.22
-3 -5 19 335.3 62.94
-3 -5 20 -10.23 26.17
-3 -5 21 52.09 29.79
-3 -5 22 61.68 32.96
-3 -5 23 141.48 47.09
-3 -4 -26 4.56 25.42
-3 -4 -25 77.92 39.59
-3 -4 -24 101.52 46.43
-3 -4 -23 46.16 34.12
-3 -4 -22 31.09 29.05
-3 -4 -21 99.28 34.84
-3 -4 -20 54.03 29.72
-3 -4 -19 355.76 62.26
-3 -4 -18 19.65 21.22
-3 -4 -17 263.97 47.08
-3 -4 -16 151.11 35.47
-3 -4 -15 86.93 28.84
-3 -4 -14 678.46 66.46
-3 -4 -13 -12.76 12.9
-3 -4 -12 974.18 73.1
-3 -4 -11 49.96 20.03
-3 -4 -10 1418.07 79.08
-3 -4 -9 46.54 16
-3 -4 -8 910.93 55.34
-3 -4 -7 1917.98 76.4
-3 -4 -6 565.72 38.38
-3 -4 -5 2483.45 77.89
-3 -4 -4 405.66 27.88
-3 -4 -3 794.51 37.42
-3 -4 -2 14.1 13.58
-3 -4 -1 1707.5 80.81
-3 -4 0 1080.04 63.54
-3 -4 1 -0.84 11.93
-3 -4 2 850.59 56.27
-3 -4 3 39.75 19.84
-3 -4 4 3445.23 123.78
-3 -4 5 224.64 32.82
-3 -4 6 2476.4 108.9
-3 -4 7 569.68 52.42
-3 -4 8 4.15 12.24
-3 -4 9 1310.11 85.33
-3 -4 10 175.29 32
-3 -4 11 749.03 69.12
-3 -4 12 -5.91 15.72
-3 -4 13 748.59 73.22
-3 -4 14 29.36 20.09
-3 -4 15 242.74 45.94
-3 -4 16 165.62 39.29
-3 -4 17 10.68 25.85
-3 -4 18 247.37 52.17
-3 -4 19 -26.01 20.03
-3 -4 20 223.53 51.6
-3 -4 21 85.5 34.7
-3 -4 22 29.87 35.81
-3 -4 23 19.69 24.01
-3 -4 24 -24.41 23.88
-3 -3 -26 -29.66 29.69
-3 -3 -25 134.38 44.04
-3 -3 -24 101.6 45.56
-3 -3 -23 182.08 53.33
-3 -3 -22 148.58 43.4
-3 -3 -21 29.99 24.79
-3 -3 -20 272.42 54.74
-3 -3 -19 185.71 43.86
-3 -3 -18 565.68 72.68
-3 -3 -17 327.09 55.38
-3 -3 -16 53.2 26.25
-3 -3 -8 115.86 20.25
-3 -3 -7 1212.67 57.88
-3 -3 -6 254.67 24.3
-3 -3 -5 17.3 7.65
-3 -3 -4 1620.56 49.08
-3 -3 -4 1712.27 88.29
-3 -3 -3 70.24 21.56
-3 -3 -3 60.84 9.63
-3 -3 -2 2305.31 103.79
-3 -3 -1 55.41 16.56
-3 -3 -1 54.59 18.37
-3 -3 0 122.4 25.97
-3 -3 1 746.54 49.52
-3 -3 2 903.04 54.64
-3 -3 3 1517.24 72.14
-3 -3 4 119.73 21.99
-3 -3 5 -4.25 13.76
-3 -3 6 646.29 37.05
-3 -3 6 659.82 52.55
-3 -3 7 81.87 15.34
-3 -3 7 90.74 23.22
-3 -3 8 1138.11 54.47
-3 -3 8 1262.81 76.82
-3 -3 9 10.51 15.97
-3 -3 10 1770.4 97.92
-3 -3 11 107.05 27.72
-3 -3 12 367.55 48.92
-3 -3 13 191.97 37.75
-3 -3 14 170.01 38.39
-3 -3 15 382.64 54.96
-3 -3 16 233.6 45.78
-3 -3 17 762.3 81.72
-3 -3 18 58.97 29.66
-3 -3 19 380.6 62.2
-3 -3 20 128.55 38.65
-3 -3 21 68.88 33.7
-3 -3 22 95.96 39.2
-3 -3 23 -32.04 32.6
-3 -3 24 152.56 46.84
-3 -3 25 76.53 40.37
-3 -2 -25 92.76 41.72
-3 -2 -24 33.97 25.23
-3 -2 -23 120.49 44.49
-3 -2 -5 1913.44 87.56
-3 -2 -4 6731.75 176.17
-3 -2 -4 6913.42 168.91
-3 -2 -3 95.95 20.67
-3 -2 -3 93.92 18.37
-3 -2 -2 2310.07 81.47
-3 -2 -2 2398.25 96.74
-3 -2 0 1082.19 54.59
-3 -2 1 1509.75 65.18
-3 -2 2 4199.96 116.72
-3 -2 3 410 34.19
-3 -2 4 5764.87 145.52
-3 -2 5 2776.51 67.57
-3 -2 5 2870.88 98.72
-3 -2 6 11.4 4.57
-3 -2 6 -8.23 6.73
-3 -2 6 -2.58 12.06
-3 -2 7 2811.39 65.01
-3 -2 7 2988.48 107.72
-3 -2 8 3.5 5.93
-3 -2 8 -10.33 15.1
-3 -2 9 446.2 44.5
-3 -2 10 306.43 38.92
-3 -2 11 128.97 28.4
-3 -2 12 1434.96 89.79
-3 -2 13 11.23 14.5
-3 -2 14 142.26 32.91
-3 -2 15 14.92 20.72
-3 -2 16 300.4 48.94
-3 -2 17 23.75 26.96
-3 -2 18 224.38 44.67
-3 -2 19 304.14 53.44
-3 -2 20 75.32 33.04
-3 -2 21 126.36 35.85
-3 -2 22 -16.51 26.63
-3 -2 23 110.82 36.51
-3 -2 24 21.55 21.98
-3 -1 -5 3833.13 114.32
-3 -1 -4 1698.68 73.27
-3 -1 -4 1654.25 71.03
-3 -1 -3 18.14 9.33
-3 -1 -3 12.69 11.27
-3 -1 -2 1188.2 55.17
-3 -1 -1 219.33 14.77
-3 -1 -1 233.01 23.01
-3 -1 0 102.61 11.07
-3 -1 1 35.44 11.29
-3 -1 2 935.35 46.39
-3 -1 3 1207.62 53.42
-3 -1 4 61.92 14.34
-3 -1 5 3528.75 102.23
-3 -1 5 3351.94 76.55
-3 -1 6 1432.53 48.15
-3 -1 6 1596.13 68.03
-3 -1 7 34.91 9.77
-3 -1 7 37.2 13.59
-3 -1 8 667.68 48.29
-3 -1 8 645.85 37.14
-3 -1 9 1532.84 62.71
-3 -1 9 1553.7 77.96
-3 -1 10 521.2 46.73
-3 -1 11 325.75 38.94
-3 -1 12 108.97 24.63
-3 -1 13 121.29 26.45
-3 -1 14 9.33 14.47
-3 -1 15 52.31 21.57
-3 -1 16 275.62 44.68
-3 -1 17 322.32 49.09
-3 -1 18 178.76 40.51
-3 -1 19 38.93 24.88
-3 -1 20 304.31 53.81
-3 -1 21 -27.81 24.23
-3 -1 22 93.29 34.44
-3 -1 23 83.04 32.99
-3 0 -5 756.66 39.9
-3 0 -4 161.99 19.32
-3 0 -4 148.71 21.73
-3 0 -3 13.81 9.52
-3 0 -2 4613.21 114.46
-3 0 -1 89.38 14.01
-3 0 -1 104.84 16.23
-3 0 0 753.08 36.29
-3 0 0 815.99 38.74
-3 0 1 1948.72 63.27
-3 0 2 175.37 20.35
-3 0 2 149.51 16.42
-3 0 3 2686.58 74.89
-3 0 3 2778.44 87.66
-3 0 4 210.54 19.66
-3 0 4 202.46 18.94
-3 0 5 132.78 16.22
-3 0 5 136.48 16.29
-3 0 6 2703.37 81.36
-3 0 6 2650.38 85.78
-3 0 6 2648.83 79.36
-3 0 7 250.19 26.56
-3 0 7 258.59 24.53
-3 0 7 258.74 25.43
-3 0 8 2457.43 83.52
-3 0 8 2235.75 81.88
-3 0 8 2462.47 86.24
-3 0 9 75.71 17.12
-3 0 9 66.95 15.62
-3 0 10 1480.3 72.63
-3 0 11 112.68 22.41
-3 0 12 277.05 35.23
-3 0 13 1188.21 75.97
-3 0 14 393.57 45.66
-3 0 15 458.05 51.79
-3 0 16 73.81 23.56
-3 0 17 238.57 41.12
-3 0 18 60.15 19.9
-3 0 19 312.32 50.52
-3 0 20 17.64 19.62
-3 0 21 41.94 21.69
-3 0 22 86.61 35.86
-3 1 -5 1413.36 43.29
-3 1 -4 76.7 15.66
-3 1 -3 570.51 37.8
-3 1 -2 1071.93 48.36
-3 1 -1 14.53 11.87
-3 1 -1 22.68 8.02
-3 1 0 1633.72 51.84
-3 1 0 1559.99 67.62
-3 1 1 234.24 25.64
-3 1 2 1605.96 68.19
-3 1 3 -3.66 8.5
-3 1 3 -3.31 8.45
-3 1 4 283.04 26.52
-3 1 4 288.82 19.35
-3 1 4 349.85 30.92
-3 1 4 255.85 29.92
-3 1 5 626.73 29.64
-3 1 5 662.92 41.08
-3 1 5 646.43 43.49
-3 1 6 363.78 31.92
-3 1 6 395.08 25.62
-3 1 7 2441.09 88.29
-3 1 7 2376.44 72.02
-3 1 8 66.01 14.12
-3 1 9 975.77 50.98
-3 1 10 511.12 39.25
-3 1 11 667.75 47.9
-3 1 12 682.22 50.88
-3 1 13 466.03 44.63
-3 1 14 391.53 44.03
-3 1 15 741.59 60.92
-3 1 16 621.43 59.06
-3 1 17 21.8 18.48
-3 1 18 1623.31 105.73
-3 1 19 270.82 46.21
-3 1 20 188.44 41.05
-3 1 21 196.09 40.82
-3 2 -4 1869.06 77.04
-3 2 -3 771.1 45.21
-3 2 -2 786.09 56.18
-3 2 -2 830.16 42.65
-3 2 -1 1278.94 52.55
-3 2 -1 1290.78 47.95
-3 2 -1 1311.4 71.69
-3 2 0 239.9 30.1
-3 2 0 157.71 20.87
-3 2 0 217.98 17.37
-3 2 1 2105.83 62.09
-3 2 1 2010.45 49.6
-3 2 1 2061.3 87.74
-3 2 1 1999.13 76.04
-3 2 1 2135.53 78
-3 2 2 310.61 28.86
-3 2 2 288.49 21.7
-3 2 2 275.48 32.28
-3 2 2 272.6 28.71
-3 2 3 29.18 9.43
-3 2 4 3078.02 101.72
-3 2 6 1687.53 42.74
-3 2 7 373.17 21.31
-3 2 8 1583.25 52.6
-3 2 9 166.8 18.62
-3 2 10 4.94 8.77
-3 2 11 323.79 29.62
-3 2 12 232.12 27.76
-3 2 13 546.79 44.05
-3 2 14 147.61 26.02
-3 2 15 471.64 46.85
-3 2 16 361.43 43.58
-3 2 17 367.86 46.32
-3 2 18 105.8 26.69
-3 2 19 7.43 13.91
-3 3 -4 1103.02 45.49
-3 3 -3 63.16 13.72
-3 3 -3 56.27 16.19
-3 3 -2 2274.87 78.5
-3 3 -2 2215 75.29
-3 3 -1 63.74 18.12
-3 3 -1 44.53 11.03
-3 3 0 3764.42 116.27
-3 3 0 3694.69 84.27
-3 3 1 2593.89 57.8
-3 3 1 2758.67 84.65
-3 3 1 2490.77 95.27
-3 3 2 553.06 35.83
-3 3 8 798.75 26.77
-3 3 9 528.02 26.53
-3 3 10 374.15 26.13
-3 3 11 3.16 8.07
-3 3 12 269.95 26.61
-3 3 13 47.84 14.77
-3 3 14 892.91 56.87
-3 3 15 139.88 25.36
-3 3 16 190.08 30
-3 3 17 114.89 26.03
-3 4 -6 58.14 11.05
-3 4 -5 3639.75 80.9
-3 4 -5 3481.24 94.21
-3 4 -4 150.46 19.66
-3 4 -3 1642.68 69.22
-3 4 -2 123.49 20.77
-3 4 -2 83.87 15.69
-3 4 -1 71.17 14.65
-3 4 -1 78.08 18.67
-3 4 0 998.42 41.97
-3 4 0 1120.16 58.42
-3 4 1 298.56 30.36
-3 4 1 296.38 19.19
-3 4 2 1121.95 58.13
-3 4 3 228.39 26.16
-3 4 10 -3.56 4.82
-3 4 11 423.59 25.1
-3 4 12 32.41 9.94
-3 4 13 594.43 38.32
-3 4 14 1165.27 58.91
-3 4 15 224.33 27.38
-3 5 -7 162.11 17.58
-3 5 -6 2224.99 76.49
-3 5 -5 71.95 14.35
-3 5 -5 34.78 13.1
-3 5 -4 1155.17 60.67
-3 5 -4 1205.33 59.28
-3 5 -2 29.63 16
-3 5 -1 1085.17 54.1
-3 5 0 141.69 23.24
-3 5 0 114.74 17.9
-3 5 1 485.74 28.12
-3 5 1 551.47 45.17
-3 5 2 36.14 6.89
-3 5 2 46.71 17.36
-3 5 3 1100.15 62.8
-3 5 12 330.15 20.28
-3 5 13 376.91 25.66
-3 6 -8 6.95 8.7
-3 6 -7 351.18 31.31
-3 6 -5 349.4 34.24
-3 6 -4 344.92 35.47
-3 6 -3 55.83 18.65
-3 6 -1 154.53 26.75
-3 6 -1 101.8 19
-3 6 0 350.41 30.68
-3 6 0 477.09 45.05
-3 6 1 15.64 9.6
-3 6 1 38.93 16.51
-3 6 2 110.92 23.69
-3 6 2 81.58 12.87
-3 6 3 367.08 20.67
-3 6 3 387.87 39.62
-3 6 4 36.91 6.64
-3 7 -5 866.96 60.16
-3 7 -4 106.9 25.7
-3 7 -3 731.17 60.52
-3 7 -2 19.02 13.45
-3 7 -1 160.68 29.67
-3 7 0 1618.3 89.25
-3 7 1 1269.01 60.96
-3 7 1 1635.72 90.68
-3 7 2 3221.12 127.21
-3 7 2 2852.28 84.66
-3 7 3 1122.22 75.41
-3 7 4 278.48 37.14
-3 7 4 212.14 18.02
-3 7 5 19.18 7.22
-3 7 6 725.42 26.18
-3 7 7 36.81 6.95
-3 8 -5 149.75 30.8
-3 8 -4 1881.9 104.3
-3 8 -3 458.16 53.94
-3 8 -2 1561.81 100.86
-3 8 -1 1449.15 100.61
-3 8 -1 1527.78 93.53
-3 8 0 522.05 64.54
-3 8 0 621.58 60.33
-3 8 1 475.24 52.4
-3 8 2 60.32 23
-3 8 3 864.87 68.45
-3 8 4 261.52 23.2
-3 8 4 364.1 46.98
-3 8 5 1758.22 56.12
-3 8 6 1458.08 45.88
-3 9 -4 19.16 21.67
-3 9 -3 334.8 51.89
-3 9 -2 231.18 43.71
-3 9 -1 17.74 20.54
-3 9 -1 100.48 30.32
-3 9 0 866.63 73.97
-3 9 0 1000.15 91.13
-3 9 1 203.47 39.12
-3 9 1 97.12 37.01
-3 9 2 545.11 59.01
-3 9 3 602.37 63
-3 9 4 614.43 62.01
-3 9 5 277.81 43.66
-3 10 -3 1625.68 113.99
-3 10 -2 48 34.31
-3 10 -1 704.99 80.69
-3 10 -1 763.45 74.01
-3 10 0 151.48 38.91
-3 10 0 279.69 46.9
-3 10 1 461.11 57.1
-3 10 1 443.26 67.32
-3 10 2 423.87 70.16
-3 10 2 553.18 63.89
-3 10 3 490.53 60.48
-3 10 3 405.49 68.98
-3 10 4 498.42 59.67
-3 10 5 292.86 50.18
-3 10 6 1191.04 92.13
-3 11 -2 159.39 39
-3 11 -1 310.38 52.63
-3 11 -1 175.81 43.14
-3 11 0 241.55 44.15
-3 11 0 160.31 44.82
-3 11 1 189.14 39.87
-3 11 1 156.17 46.7
-3 11 2 136.45 38.26
-3 11 2 78.07 36.02
-3 11 3 160.86 52.29
-3 11 3 254.12 45.66
-3 11 4 -7.5 20.99
-3 11 4 124.42 35.27
-3 11 5 513.92 63.05
-3 11 5 511.11 82.64
-3 11 6 130.26 38.76
-3 11 7 419.83 59.28
-3 12 0 324.89 61.03
-3 12 0 370.54 57.17
-3 12 1 122.06 40.16
-3 12 1 79.48 32.39
-3 12 2 333.51 53.74
-3 12 2 228.96 59.83
-3 12 3 53.15 35.26
-3 12 3 91.22 31.33
-3 12 4 317.85 64.9
-3 12 4 343.56 54.88
-3 12 5 189.15 57.65
-3 12 5 297.91 53.26
-3 12 6 245.54 49.71
-3 12 6 190.95 56.77
-3 12 7 468.68 84
-3 12 7 458.39 63.4
-3 12 8 55.05 27.78
-3 12 8 25.72 28.93
-3 12 9 378.21 61.89
-3 13 0 71.49 32.93
-3 13 1 305.79 55.74
-3 13 2 167.42 48.67
-3 13 2 216.73 48.18
-3 13 3 282.81 54.49
-3 13 3 243.91 63.68
-3 13 4 348.08 60.59
-3 13 4 112.68 47.01
-3 13 5 228.26 52.4
-3 13 5 56.76 34.98
-3 13 6 247.25 50.44
-3 13 6 130.01 50.07
-3 13 7 7.55 31.75
-3 13 7 76.84 33.67
-3 13 8 262.13 70.8
-3 13 8 255.25 51.12
-3 13 9 42.98 27.91
-3 13 9 -2.57 27.77
-3 13 10 -1.64 32.93
-3 13 10 101.97 35.93
-3 13 11 60.76 53.6
-3 13 12 35.84 40.1
-3 13 13 195.05 69.73
-3 14 1 91.88 38.4
-3 14 2 22.28 31.15
-3 14 3 -4 26.34
-3 14 3 37.51 24.62
-3 14 4 25.17 34.41
-3 14 4 33.87 21.25
-3 14 5 128.44 36.05
-3 14 5 216.89 61.9
-3 14 6 -5.75 37.74
-3 14 6 91.62 35.54
-3 14 7 260.29 75.85
-3 14 7 229.85 52.27
-3 14 8 205.01 73.3
-3 14 8 131.25 41.26
-3 14 9 167.54 45.89
-3 14 9 74.02 45.43
-3 14 10 137.83 58.32
-3 14 10 212.97 49.59
-3 14 11 54.97 27.02
-3 14 11 -25.14 28.01
-3 14 12 237.85 54.61
-3 15 5 48.89 39.16
-3 15 6 171.75 65.45
-3 15 7 206.25 71.83
-3 15 8 -18.61 30.14
-2 -16 0 28.92 26.85
-2 -16 1 99.76 35.72
-2 -16 2 -7.97 25.88
-2 -16 3 174.65 51.89
-2 -16 4 45.1 36.31
-2 -15 -3 61.91 33.54
-2 -15 -2 179.89 50.81
-2 -15 -1 70.65 36.58
-2 -15 0 276.05 56.84
-2 -15 1 41.23 27.35
-2 -15 2 140.87 44.73
-2 -15 3 179.06 54.79
-2 -15 4 86.42 33.49
-2 -15 5 66.86 27.38
-2 -15 6 -27.92 36.5
-2 -15 7 95.66 39.54
-2 -14 -6 214.23 46.22
-2 -14 -5 293.88 52.74
-2 -14 -4 73.17 32.29
-2 -14 -3 126.89 39.94
-2 -14 -2 47.4 32.96
-2 -14 -1 202.91 47.69
-2 -14 0 136.89 44.72
-2 -14 1 309.87 61.04
-2 -14 2 266.63 57.11
-2 -14 3 37.02 30.17
-2 -14 4 246.82 61.34
-2 -14 5 25.29 27.71
-2 -14 6 176.11 52.02
-2 -14 7 46.11 39.15
-2 -14 8 122.07 47.35
-2 -14 9 101.86 44.72
-2 -13 -16 61.66 35.5
-2 -13 -15 19.94 22.19
-2 -13 -14 71.5 34.41
-2 -13 -13 137.2 44.81
-2 -13 -12 26.55 30.33
-2 -13 -6 282.27 51.09
-2 -13 -5 147.19 38.31
-2 -13 -4 232.68 44.75
-2 -13 -3 43.88 33.14
-2 -13 -2 209.24 50
-2 -13 -1 102.04 29.42
-2 -13 0 74.02 36.53
-2 -13 1 436.03 65.43
-2 -13 2 -3.84 18.91
-2 -13 3 236.37 54.28
-2 -13 4 30.55 33.76
-2 -13 5 203.37 53.41
-2 -13 6 361.85 69.16
-2 -13 7 188 56.01
-2 -13 8 201.82 53.2
-2 -13 9 -7.96 29.53
-2 -13 10 59.87 32.34
-2 -13 11 37.66 21.38
-2 -12 -19 196.94 57.36
-2 -12 -18 111.33 41
-2 -12 -17 129.82 41.73
-2 -12 -16 213.77 54.89
-2 -12 -15 -14.79 33.26
-2 -12 -14 367.04 69.32
-2 -12 -13 18.28 30.58
-2 -12 -12 247.51 53.36
-2 -12 -11 20.13 28.18
-2 -12 -10 227.53 50.87
-2 -12 -6 51.68 27.95
-2 -12 -5 711.4 74.59
-2 -12 -4 352.69 56.69
-2 -12 -3 426.44 59.76
-2 -12 -2 469.53 64.11
-2 -12 -1 434.36 64.71
-2 -12 0 626 75.7
-2 -12 1 86.43 40.67
-2 -12 2 795.28 86.53
-2 -12 3 120.69 39.53
-2 -12 4 465.98 70.2
-2 -12 5 185.73 45.76
-2 -12 6 90.69 37.28
-2 -12 7 161.66 43.82
-2 -12 8 -6.75 22.39
-2 -12 9 167.74 44.74
-2 -12 10 42.07 21.69
-2 -12 11 235.22 57.7
-2 -12 12 34.55 33.55
-2 -12 13 24.45 27.28
-2 -11 -21 -28.53 42.2
-2 -11 -20 180.97 54.63
-2 -11 -19 89.94 44.7
-2 -11 -18 71.79 34.39
-2 -11 -17 135.23 48.13
-2 -11 -16 94.36 41.61
-2 -11 -15 100.03 32.77
-2 -11 -14 -11.65 20.82
-2 -11 -13 255.11 53.86
-2 -11 -12 149.45 42.15
-2 -11 -11 349.82 61.29
-2 -11 -10 777.84 86.79
-2 -11 -9 93.25 33.91
-2 -11 -6 199.86 40.71
-2 -11 -5 820.53 76.5
-2 -11 -4 194.35 39.69
-2 -11 -3 650.78 72.08
-2 -11 -2 75.47 30.33
-2 -11 -1 691.46 72.63
-2 -11 0 102.96 36.13
-2 -11 1 1117 95.87
-2 -11 2 16.9 21.87
-2 -11 3 189.91 45.68
-2 -11 4 737.3 83.02
-2 -11 5 34.14 24.99
-2 -11 6 1081.97 103.31
-2 -11 7 83.85 36.73
-2 -11 8 621.38 80.36
-2 -11 9 142.31 44.12
-2 -11 10 37.55 23.41
-2 -11 11 178.04 50.18
-2 -11 12 49.47 29.89
-2 -11 13 177.23 55.26
-2 -11 14 0.91 23.52
-2 -11 15 140.72 49.46
-2 -10 -23 140.65 45.86
-2 -10 -22 5.76 23.5
-2 -10 -21 -50.07 31.47
-2 -10 -20 113.53 41.89
-2 -10 -19 -5.03 24.48
-2 -10 -18 137.01 46.95
-2 -10 -17 -17.1 19.87
-2 -10 -16 467.87 73.39
-2 -10 -15 62.22 27.49
-2 -10 -14 272.41 54.87
-2 -10 -13 681.16 81.11
-2 -10 -12 63.56 33.74
-2 -10 -11 1169.54 102.73
-2 -10 -10 19.73 23.01
-2 -10 -9 430.5 60.94
-2 -10 -8 212.14 46.57
-2 -10 -7 284.44 52.16
-2 -10 -6 506.65 58.55
-2 -10 -5 69.69 29.1
-2 -10 -4 529.61 60.36
-2 -10 -3 26.68 20.14
-2 -10 -2 46.54 23.65
-2 -10 -1 -2.55 15.54
-2 -10 0 289.12 46.83
-2 -10 1 121.78 31.72
-2 -10 2 459.35 60.98
-2 -10 3 374.74 56.96
-2 -10 4 86.16 31.64
-2 -10 5 313.9 54.51
-2 -10 6 66.62 33.48
-2 -10 7 789.72 84.98
-2 -10 8 195.36 47.59
-2 -10 9 457.56 67.8
-2 -10 10 342.35 62.21
-2 -10 11 52.42 29.79
-2 -10 12 401.55 70.06
-2 -10 13 -1.61 23.04
-2 -10 14 193.91 51.77
-2 -10 15 65.99 37.28
-2 -10 16 30.04 36.93
-2 -10 17 19.94 24.33
-2 -9 -24 91.88 46.03
-2 -9 -23 40.84 29.94
-2 -9 -22 -48.4 32.43
-2 -9 -21 222.24 59.42
-2 -9 -20 18.77 23.38
-2 -9 -19 193.94 49.82
-2 -9 -18 -24.67 26.68
-2 -9 -17 143.12 42.84
-2 -9 -16 87.41 38.32
-2 -9 -15 -1.92 19.22
-2 -9 -14 35.81 24.68
-2 -9 -13 71.35 30.39
-2 -9 -12 257.41 46.41
-2 -9 -11 28.09 21.73
-2 -9 -10 1785.69 118.28
-2 -9 -9 273.11 48.97
-2 -9 -8 630.82 67.96
-2 -9 -7 765.61 73.53
-2 -9 -6 160.54 35.79
-2 -9 -5 81.24 25.36
-2 -9 -4 153.9 33.25
-2 -9 -3 817.16 72.06
-2 -9 -2 1629.49 102.74
-2 -9 -1 2538.3 129.02
-2 -9 0 478.99 56.48
-2 -9 1 265.44 42.37
-2 -9 2 105.28 30.37
-2 -9 3 42 17.15
-2 -9 4 813.72 78.38
-2 -9 5 502.47 63.15
-2 -9 6 623.23 71.41
-2 -9 6 634.08 48.87
-2 -9 7 1400.02 106.69
-2 -9 7 1244.12 68.07
-2 -9 8 -24.08 21.1
-2 -9 8 -10.15 9.69
-2 -9 9 265.83 51.4
-2 -9 10 10.2 21.81
-2 -9 11 40.32 25.35
-2 -9 12 54.55 24.38
-2 -9 13 83.5 35.26
-2 -9 14 204.84 48.09
-2 -9 15 41.36 30.63
-2 -9 16 266.93 58.73
-2 -9 17 39.76 33.72
-2 -9 18 95.42 40.84
-2 -8 -25 139.4 54.46
-2 -8 -24 70.72 36.01
-2 -8 -23 5.13 30.34
-2 -8 -22 349.33 69.46
-2 -8 -21 17.44 21.92
-2 -8 -20 144.95 45.54
-2 -8 -19 31 23.4
-2 -8 -18 90.8 32.42
-2 -8 -17 202.69 47.22
-2 -8 -16 5.28 18.24
-2 -8 -15 295.51 53.97
-2 -8 -14 104.16 34.62
-2 -8 -13 241.95 47.26
-2 -8 -12 -12.29 19.45
-2 -8 -11 20.99 22.26
-2 -8 -10 218.84 40.7
-2 -8 -9 8.02 13.69
-2 -8 -8 430.95 52.42
-2 -8 -7 34.38 23.38
-2 -8 -6 395.95 50.37
-2 -8 -5 475.01 54.56
-2 -8 -5 425.94 49
-2 -8 -4 916.45 70.19
-2 -8 -3 325.22 43.6
-2 -8 -2 302.88 40.45
-2 -8 -1 632.68 58.8
-2 -8 0 30.69 21.64
-2 -8 1 1312.11 88.5
-2 -8 2 13.44 16.94
-2 -8 3 654.98 64.31
-2 -8 4 53.27 24.22
-2 -8 5 270.67 45.2
-2 -8 5 240.97 28.2
-2 -8 6 150.74 35.69
-2 -8 6 146.09 22.27
-2 -8 7 104.37 19.87
-2 -8 7 174.9 40.46
-2 -8 8 23.93 12.1
-2 -8 8 75.75 28.01
-2 -8 9 62.54 25.79
-2 -8 9 30.16 11.25
-2 -8 10 140.81 39.81
-2 -8 11 6.42 20.41
-2 -8 12 312.29 57.88
-2 -8 13 222.25 47.72
-2 -8 14 9.77 23.79
-2 -8 15 301.29 59.68
-2 -8 16 -4.83 22.51
-2 -8 17 101.76 41.34
-2 -8 18 62.97 37.13
-2 -8 19 179.96 57.64
-2 -8 20 49.79 36.79
-2 -7 -25 28.95 29.16
-2 -7 -24 36.68 30.84
-2 -7 -23 155.14 50.26
-2 -7 -22 3.38 23.72
-2 -7 -21 129.4 43.47
-2 -7 -20 59.15 30.09
-2 -7 -19 80.22 28.59
-2 -7 -18 190.24 45.04
-2 -7 -17 19.23 16.81
-2 -7 -16 318.41 52.88
-2 -7 -15 1.97 17.58
-2 -7 -14 85.09 30.04
-2 -7 -13 329.8 49.86
-2 -7 -12 302.49 47.71
-2 -7 -11 1423.88 97.52
-2 -7 -10 82.04 25.51
-2 -7 -9 978.45 75.57
-2 -7 -8 -19.52 18.14
-2 -7 -7 996.21 72.9
-2 -7 -6 58.91 20.64
-2 -7 -5 877.67 66.64
-2 -7 -5 994.32 71.08
-2 -7 -4 1507.16 86.15
-2 -7 -4 1606.18 89.63
-2 -7 -3 541.14 51.7
-2 -7 -2 3570.61 136.91
-2 -7 -1 24.14 20.34
-2 -7 0 3280.44 132.8
-2 -7 1 1008.63 72.41
-2 -7 2 1161.18 78.56
-2 -7 3 746.28 64.76
-2 -7 4 -7.29 16.67
-2 -7 4 2.35 8.29
-2 -7 5 916.34 49.52
-2 -7 5 933.68 75.45
-2 -7 6 23.59 19.54
-2 -7 6 12.34 9.14
-2 -7 7 1423.19 97.29
-2 -7 7 1365.53 60.86
-2 -7 8 252.72 42.83
-2 -7 8 253.05 26.32
-2 -7 9 1063.3 53.94
-2 -7 9 1211.84 94.48
-2 -7 10 457.98 60.37
-2 -7 10 386.95 33.12
-2 -7 11 203.68 25.15
-2 -7 11 258.52 47.81
-2 -7 12 108.3 31.34
-2 -7 13 52.35 27.95
-2 -7 14 279.4 53.48
-2 -7 15 1.75 23.15
-2 -7 16 189.38 49.62
-2 -7 17 173.25 46.87
-2 -7 18 51.04 33.17
-2 -7 19 120.17 41.94
-2 -7 20 130.02 49.26
-2 -7 21 147.61 52.61
-2 -6 -25 -19.03 26.11
-2 -6 -24 107.92 46.01
-2 -6 -23 49.79 33.35
-2 -6 -22 93.98 35.06
-2 -6 -21 108.8 40.85
-2 -6 -20 37.24 35.08
-2 -6 -19 393.49 65.25
-2 -6 -18 134.08 38
-2 -6 -17 225.25 47.24
-2 -6 -16 479.07 64.12
-2 -6 -15 890.74 83.03
-2 -6 -14 373.84 54.42
-2 -6 -13 249.4 41.2
-2 -6 -12 609.94 62.57
-2 -6 -11 90.89 26.11
-2 -6 -10 129.14 28.42
-2 -6 -9 50.45 18.66
-2 -6 -8 493.67 50.45
-2 -6 -7 416.31 44.92
-2 -6 -6 2374.91 104.97
-2 -6 -5 993.17 65.4
-2 -6 -4 70.07 20.83
-2 -6 -4 121.62 24.09
-2 -6 -3 216.45 34.13
-2 -6 -2 508.61 48.99
-2 -6 -1 970.58 65.52
-2 -6 0 20.91 17.75
-2 -6 1 390.87 42.47
-2 -6 2 498.41 48.76
-2 -6 3 205.24 31.84
-2 -6 4 2274.14 110.06
-2 -6 4 2250.3 73.7
-2 -6 5 318.6 26.5
-2 -6 5 320.65 43.03
-2 -6 6 874 71.34
-2 -6 6 922.9 44.62
-2 -6 7 38.38 10.45
-2 -6 7 62.79 23.73
-2 -6 8 10.52 7.38
-2 -6 8 20.43 19.75
-2 -6 9 528.4 35.39
-2 -6 9 559.17 60.56
-2 -6 10 32.82 24.25
-2 -6 11 741.53 76.23
-2 -6 12 55.18 26.97
-2 -6 13 1483.15 112.2
-2 -6 14 274.33 50.92
-2 -6 15 199.6 44.15
-2 -6 16 296.54 55.71
-2 -6 17 -2.48 21.99
-2 -6 18 187.62 47.17
-2 -6 19 37.27 26.81
-2 -6 20 76.99 38.41
-2 -6 21 145.19 46.05
-2 -6 22 84.07 44.99
-2 -5 -26 3.01 27.72
-2 -5 -25 75.97 35.81
-2 -5 -24 -8.63 27.19
-2 -5 -23 -2.34 23.16
-2 -5 -22 190.29 52.53
-2 -5 -21 -23.86 22.6
-2 -5 -20 196.54 52.7
-2 -5 -19 -24.5 18.31
-2 -5 -18 468.76 66.1
-2 -5 -17 -0.95 22.18
-2 -5 -16 115.48 33.09
-2 -5 -15 458.3 58.67
-2 -5 -14 21.03 18.16
-2 -5 -13 400.88 50.71
-2 -5 -12 4.45 12.65
-2 -5 -11 712.62 61.34
-2 -5 -10 220.73 34.43
-2 -5 -9 1752.73 90.05
-2 -5 -8 767.97 56.52
-2 -5 -7 11.97 12.26
-2 -5 -6 563.35 45.01
-2 -5 -5 1147.29 62.52
-2 -5 -4 1517.47 71.61
-2 -5 -3 39.65 15.8
-2 -5 -3 28.8 12.41
-2 -5 -2 1822.95 83.75
-2 -5 -1 227.97 30.04
-2 -5 0 22.65 16.61
-2 -5 1 2291.3 96.76
-2 -5 2 23.28 16.81
-2 -5 3 1338.7 75.45
-2 -5 4 501.81 28.22
-2 -5 4 546.54 50.09
-2 -5 5 736.13 59.33
-2 -5 5 730.99 34.03
-2 -5 6 374.98 24.33
-2 -5 6 398.18 44.21
-2 -5 7 74.32 23.9
-2 -5 7 55.7 11.04
-2 -5 8 2561.01 121.9
-2 -5 9 35.71 17.49
-2 -5 10 324.94 47.42
-2 -5 11 61.62 26.05
-2 -5 12 393.21 56.24
-2 -5 13 61.01 26.97
-2 -5 14 109.8 34.2
-2 -5 15 388.04 61.55
-2 -5 16 36.22 27.78
-2 -5 17 218.42 50.57
-2 -5 18 9.03 19.79
-2 -5 19 353.67 66.37
-2 -5 20 57.21 28.04
-2 -5 21 145.39 46.61
-2 -5 22 114.26 39.99
-2 -5 23 -48.16 30.07
-2 -4 -26 69.94 49.24
-2 -4 -25 70.57 40.14
-2 -4 -24 32.14 31.89
-2 -4 -23 230.05 56.7
-2 -4 -22 -3.7 19.48
-2 -4 -21 552.68 79.2
-2 -4 -20 -12.46 25.63
-2 -4 -19 22.42 20.61
-2 -4 -18 221.35 46.57
-2 -4 -17 144.83 39.58
-2 -4 -16 531.85 67.49
-2 -4 -15 301.05 46.79
-2 -4 -14 329.69 48.21
-2 -4 -13 -0.42 12.72
-2 -4 -12 1171.22 81.38
-2 -4 -11 237.58 36.35
-2 -4 -10 377.54 43.24
-2 -4 -9 1357.11 75.78
-2 -4 -8 111.05 22.71
-2 -4 -7 2472.73 93.55
-2 -4 -6 331.05 32.92
-2 -4 -5 3675.74 107.65
-2 -4 -4 1465.93 61.76
-2 -4 -3 207.9 26.46
-2 -4 -3 182.35 22.52
-2 -4 -2 896.37 54.45
-2 -4 -1 38.78 15.98
-2 -4 -1 61.25 16.63
-2 -4 0 175.69 24.8
-2 -4 0 203.36 32.59
-2 -4 1 13.24 11.58
-2 -4 1 24.99 12.87
-2 -4 2 2763.29 101.36
-2 -4 2 2733.74 116.95
-2 -4 3 712.53 51.05
-2 -4 4 2397.64 98.5
-2 -4 4 2278 54.72
-2 -4 5 2741.11 108.56
-2 -4 5 2403.29 57.11
-2 -4 6 187.01 31.74
-2 -4 7 1925.45 97.39
-2 -4 8 108.23 26.56
-2 -4 9 1102.35 77.39
-2 -4 10 706.27 64.78
-2 -4 11 170.2 33.78
-2 -4 12 867.98 75.68
-2 -4 13 6.73 15.88
-2 -4 14 514.37 62.42
-2 -4 15 128.59 34.78
-2 -4 16 715.09 77.56
-2 -4 17 32.85 20.96
-2 -4 18 0.22 23.01
-2 -4 19 85.72 30.69
-2 -4 20 54.46 31.49
-2 -4 21 312.01 61.82
-2 -4 22 8.51 24.52
-2 -4 23 170.44 51.87
-2 -4 24 51.58 26.25
-2 -3 -25 -45.77 22.5
-2 -3 -24 260.84 65.09
-2 -3 -23 32.16 36.07
-2 -3 -22 27.65 30.55
-2 -3 -21 218.17 55.59
-2 -3 -20 244.87 54.29
-2 -3 -19 600.49 78.26
-2 -3 -18 213.51 47
-2 -3 -17 559.76 70.32
-2 -3 -16 189.12 40.56
-2 -3 -15 53.59 22.94
-2 -3 -14 323.32 47.78
-2 -3 -13 241.91 40.17
-2 -3 -12 885.63 70.59
-2 -3 -11 780.56 61.18
-2 -3 -10 2213.68 100.11
-2 -3 -9 -4.08 13
-2 -3 -8 731.75 50.6
-2 -3 -7 973.6 53.83
-2 -3 -6 378.29 30.75
-2 -3 -5 994.28 56.33
-2 -3 -5 1020.18 47.19
-2 -3 -4 51.74 10.32
-2 -3 -4 87.94 16.04
-2 -3 -3 932.37 49.46
-2 -3 -3 1075.4 64.45
-2 -3 -3 1067.74 41.22
-2 -3 -2 34.65 16.33
-2 -3 -2 35.74 12.62
-2 -3 -2 32.26 7.91
-2 -3 -1 697.2 43.17
-2 -3 -1 708.04 50.97
-2 -3 0 123.27 18.97
-2 -3 0 168.88 26.33
-2 -3 1 1170.31 57.16
-2 -3 2 180.03 24.17
-2 -3 3 507.43 39.01
-2 -3 4 1083.04 47.04
-2 -3 4 1145.05 60.39
-2 -3 5 262.68 31.44
-2 -3 5 211.95 21.72
-2 -3 6 1399.94 58.65
-2 -3 6 1542.59 76.71
-2 -3 7 36.49 14.13
-2 -3 8 955.98 64.94
-2 -3 9 1889.6 95.99
-2 -3 10 629.11 58.02
-2 -3 11 1065.77 76.34
-2 -3 12 105.02 27.67
-2 -3 13 339.29 47.35
-2 -3 14 180.53 36.69
-2 -3 15 604.4 68.02
-2 -3 16 164.05 38.47
-2 -3 17 186.3 42.15
-2 -3 18 453.18 62.34
-2 -3 19 48.41 23.69
-2 -3 20 258.71 54.18
-2 -3 21 -8.67 18.48
-2 -3 22 68.06 35.52
-2 -3 23 37 33.32
-2 -3 24 156.31 49.87
-2 -3 25 53.69 35.99
-2 -2 -25 11.22 31.89
-2 -2 -24 8.56 31.02
-2 -2 -23 117.32 48.61
-2 -2 -22 65.54 24.09
-2 -2 -21 76.76 41.3
-2 -2 -5 503.86 38.83
-2 -2 -4 3396.31 79.49
-2 -2 -4 3366.11 111.8
-2 -2 -4 3422.47 102.14
-2 -2 -3 14.1 6
-2 -2 -3 9.98 10.34
-2 -2 -3 17.48 10.3
-2 -2 -2 479.51 37.01
-2 -2 -2 462.08 31.22
-2 -2 -1 707.42 46.59
-2 -2 -1 635.25 38.16
-2 -2 0 1265.42 54.15
-2 -2 1 905.35 45.72
-2 -2 2 93.13 16.36
-2 -2 3 1589.97 64.18
-2 -2 4 983.95 51.66
-2 -2 4 964.18 37.92
-2 -2 5 802.55 48.61
-2 -2 6 640.18 45.68
-2 -2 7 22.58 15.67
-2 -2 8 2036.64 90.95
-2 -2 9 32.27 16.43
-2 -2 10 396.51 43.57
-2 -2 11 44.15 20.42
-2 -2 12 107.51 24.62
-2 -2 13 505.35 54.4
-2 -2 14 796.26 71.24
-2 -2 15 367.97 50.83
-2 -2 16 216.11 42.58
-2 -2 17 343.14 54.19
-2 -2 18 130.89 36.3
-2 -2 19 213.9 46.04
-2 -2 20 34.09 30.9
-2 -2 21 49.93 27.79
-2 -2 22 354.54 64.68
-2 -2 23 16.62 29.23
-2 -2 24 98.49 41.72
-2 -2 25 28.95 28.07
-2 -2 26 70.47 36.04
-2 -1 -25 4.2 37.72
-2 -1 -5 801.19 47.88
-2 -1 -4 727.26 42.52
-2 -1 -4 772.63 42.86
-2 -1 -3 1761.4 63.53
-2 -1 -3 1778.87 64.41
-2 -1 -2 136.22 18.15
-2 -1 -2 126.49 16.3
-2 -1 -1 1541.55 52.18
-2 -1 0 271.13 21.64
-2 -1 1 657.43 33.14
-2 -1 2 2211.32 64.96
-2 -1 3 1432.76 33.93
-2 -1 3 1579.63 54.86
-2 -1 4 46.92 10.15
-2 -1 4 50.27 6.86
-2 -1 5 1059.04 50.19
-2 -1 6 70.03 15.48
-2 -1 7 391.85 24.95
-2 -1 7 492.18 38.07
-2 -1 8 10.02 12.2
-2 -1 8 10.33 9.59
-2 -1 9 585.07 33.37
-2 -1 9 577.19 45.85
-2 -1 10 622.3 35.37
-2 -1 10 577.02 49.02
-2 -1 11 927.9 45.2
-2 -1 11 1045.68 67.85
-2 -1 12 126.88 17.82
-2 -1 12 118.29 25.58
-2 -1 13 380.96 45.28
-2 -1 13 311.56 28.17
-2 -1 14 70.78 14.69
-2 -1 14 65.29 22.55
-2 -1 15 87.91 27.63
-2 -1 16 377.68 52.62
-2 -1 17 17.63 20.24
-2 -1 18 152.36 38.42
-2 -1 19 121.63 34.29
-2 -1 20 144.71 41.3
-2 -1 21 237.84 47.49
-2 -1 22 70.64 33.67
-2 -1 23 83.77 35.18
-2 -1 24 26.09 23.98
-2 -1 25 114.81 42.24
-2 0 -5 914.31 51.47
-2 0 -4 6106.63 140.18
-2 0 -3 9999 182.48
-2 0 -3 9365.44 163.51
-2 0 -2 41.99 11.5
-2 0 -1 454.73 25.14
-2 0 -1 444.61 25.07
-2 0 0 5.34 6.4
-2 0 0 5.62 5.4
-2 0 1 382.53 23.32
-2 0 2 64.19 10.29
-2 0 2 55.9 12.53
-2 0 3 8289.25 142.58
-2 0 3 8279.78 142.97
-2 0 4 7179.72 138.39
-2 0 4 6919.76 130.76
-2 0 4 7115.72 132.04
-2 0 5 790.27 37.03
-2 0 5 808.64 39.49
-2 0 5 829.59 38.47
-2 0 6 2722.31 79.89
-2 0 6 2944.26 83.31
-2 0 7 504.88 33.33
-2 0 7 561.05 36.82
-2 0 8 4.27 8.14
-2 0 8 13.12 11.17
-2 0 9 612.71 39.28
-2 0 9 656.38 45.61
-2 0 10 109.76 18.87
-2 0 10 143.59 23.51
-2 0 11 341.89 31.51
-2 0 11 431.07 41.48
-2 0 12 186.62 29.21
-2 0 13 871.8 63.53
-2 0 14 181.67 32.73
-2 0 15 436.03 50.29
-2 0 16 -9.33 13.93
-2 0 17 734.19 71.47
-2 0 18 171.33 39.13
-2 0 19 194.6 40.87
-2 0 20 641.84 73.65
-2 0 21 -22.29 25.98
-2 0 22 156.9 39.37
-2 0 23 93.95 33.09
-2 0 24 141.27 42.85
-2 1 -5 6.25 8.01
-2 1 -4 2091.07 73.77
-2 1 -3 849.37 41.61
-2 1 -2 1476.69 50.77
-2 1 -1 254.78 24.61
-2 1 -1 280.96 18.69
-2 1 0 514.13 33.94
-2 1 0 520.9 22.38
-2 1 1 138.57 15.84
-2 1 1 143.64 11.7
-2 1 1 116.51 15.77
-2 1 1 131.81 16.98
-2 1 2 705.68 39.51
-2 1 2 786.82 38.6
-2 1 2 742.84 39.86
-2 1 2 722.32 35.81
-2 1 3 2587.53 74.4
-2 1 3 2625.26 84.42
-2 1 3 2600.29 84.25
-2 1 3 2773.29 79.28
-2 1 4 15.86 8.01
-2 1 4 33.94 11.2
-2 1 4 25.69 12.81
-2 1 4 14.6 10.73
-2 1 4 21.48 5.88
-2 1 5 1737.46 47.85
-2 1 5 1644.33 63.72
-2 1 5 1754.34 75.71
-2 1 5 1598.12 70.28
-2 1 5 1698.86 63.91
-2 1 6 241.29 18.88
-2 1 6 225.03 23.31
-2 1 6 273.53 26.63
-2 1 6 226.99 28.23
-2 1 7 219.01 20.57
-2 1 7 269.95 28.62
-2 1 8 1597.91 60.82
-2 1 9 1567.94 64.99
-2 1 10 1618.26 70.94
-2 1 11 30.42 14.5
-2 1 12 846.21 56.76
-2 1 13 516.03 46.22
-2 1 14 655.06 55.72
-2 1 15 171.95 30.97
-2 1 16 66.29 21.4
-2 1 17 339.83 45.23
-2 1 18 39.23 23.44
-2 1 19 205.67 40.49
-2 1 20 5.14 18.37
-2 1 21 195.03 44.2
-2 1 22 -22.86 18.03
-2 2 -4 223.55 25.7
-2 2 -3 797.67 31.55
-2 2 -3 826.21 43.11
-2 2 -2 566.28 31.73
-2 2 -2 574.41 29.91
-2 2 -1 76.47 13.23
-2 2 -1 79.65 14.65
-2 2 -1 69.41 9.99
-2 2 -1 50.39 14.6
-2 2 0 100.57 15.74
-2 2 0 105.69 13.18
-2 2 0 113.99 16.13
-2 2 0 120.25 21.19
-2 2 0 121.2 10.4
-2 2 1 16.63 7.52
-2 2 1 20.65 10.22
-2 2 1 13.48 8.76
-2 2 1 10.25 8.32
-2 2 2 160.11 22.7
-2 2 2 160.39 20.48
-2 2 2 153.23 20.85
-2 2 2 171.57 20.68
-2 2 3 753.45 48.59
-2 2 3 801.1 44.2
-2 2 3 802.39 44.79
-2 2 3 713.73 46.7
-2 2 4 415.11 37.66
-2 2 4 411.76 37.93
-2 2 4 414.33 33.05
-2 2 4 430.39 33.49
-2 2 5 550.38 40.66
-2 2 5 555.22 45.5
-2 2 6 2482.7 91.18
-2 2 6 2402.44 55.02
-2 2 7 375.54 22.52
-2 2 8 1957.94 61.86
-2 2 9 223.64 21.85
-2 2 10 227.43 23.98
-2 2 11 2070.7 80.4
-2 2 12 188.06 25.54
-2 2 13 1468.86 75.44
-2 2 14 659.85 52.53
-2 2 15 378.94 43.51
-2 2 16 229.54 35.95
-2 2 17 -0.6 12.33
-2 2 18 204.78 37.44
-2 2 19 31.58 21.84
-2 2 20 255.92 45.13
-2 2 21 30.44 17.1
-2 3 -5 609.47 26.92
-2 3 -4 50.17 14.11
-2 3 -4 53.15 8.43
-2 3 -3 138.53 19.72
-2 3 -2 542.05 34.52
-2 3 -2 541.75 35.76
-2 3 -1 4495.38 142.99
-2 3 -1 4146.87 97.86
-2 3 -1 4478.73 114.25
-2 3 0 347.81 21.29
-2 3 0 323.64 27.2
-2 3 0 273.38 32.88
-2 3 0 350.46 30.29
-2 3 1 4965.95 86.65
-2 3 1 4959.3 117.72
-2 3 1 5014.84 128.53
-2 3 1 4987.01 149.49
-2 3 2 46.98 15.79
-2 3 2 39.12 15.18
-2 3 2 29.07 14.98
-2 3 3 3546.97 109.91
-2 3 5 79.36 8.55
-2 3 6 851.26 33.48
-2 3 7 14.98 5.92
-2 3 7 32.1 10.17
-2 3 8 2793.01 68.1
-2 3 8 2817.37 82.43
-2 3 9 31.51 11
-2 3 9 19.09 8.75
-2 3 10 709.67 38.96
-2 3 11 627.86 39.7
-2 3 12 225.56 26.44
-2 3 13 162.71 24.61
-2 3 14 44.12 16.04
-2 3 15 264.96 34.75
-2 3 16 4.39 11.01
-2 3 17 309.39 40.86
-2 3 18 330.55 43.36
-2 3 19 239.21 38.87
-2 4 -4 3261.08 88.24
-2 4 -3 322.86 29.72
-2 4 -3 294.1 32.81
-2 4 -3 304.92 28.15
-2 4 -2 5375.38 136.39
-2 4 -2 5354.46 131.6
-2 4 -1 733.48 47.93
-2 4 -1 669.2 45.55
-2 4 -1 649.85 38.5
-2 4 0 935.29 52.02
-2 4 1 27.59 14
-2 4 3 721.95 25.25
-2 4 4 3212.68 60.85
-2 4 5 3693.19 71.71
-2 4 6 754.37 31.06
-2 4 7 508.39 28.9
-2 4 7 474.71 20.44
-2 4 8 36.31 9.55
-2 4 9 483.91 34.1
-2 4 10 21.98 11.48
-2 4 11 900.3 44.43
-2 4 11 804.65 51.38
-2 4 12 80.12 15.42
-2 4 12 59.23 16.79
-2 4 13 49.01 13.7
-2 4 13 29.24 14.17
-2 4 14 387.84 36.07
-2 4 15 29.59 14.15
-2 4 16 124.88 25.47
-2 4 17 101.24 25.28
-2 5 -4 5.43 9.18
-2 5 -4 16.46 11.07
-2 5 -3 39.28 12.83
-2 5 -2 89.37 21.1
-2 5 -2 90.27 17.33
-2 5 -2 98.01 21.06
-2 5 -1 32.6 15.11
-2 5 0 2017.35 85.35
-2 5 1 2293.46 90.69
-2 5 1 2156.52 73.78
-2 5 2 702.04 37.12
-2 5 2 726.57 50.15
-2 5 3 980.97 40.16
-2 5 4 96.49 12.16
-2 5 4 115.36 12.33
-2 5 5 24.32 7.02
-2 5 5 10.19 4.53
-2 5 6 457.51 22.18
-2 5 6 539.32 27.17
-2 5 7 6.05 6.12
-2 5 7 19.29 6.23
-2 5 8 672.29 28.31
-2 5 8 709.11 37.16
-2 5 9 1253.65 54.55
-2 5 9 1220.33 43.33
-2 5 10 265.83 26.42
-2 5 10 227.47 20.18
-2 5 11 441.82 37
-2 5 12 131.92 21.53
-2 5 13 361.1 37.88
-2 5 14 58.52 16.51
-2 5 14 48.06 17.49
-2 5 15 155.5 24.31
-2 6 -4 872.17 58.08
-2 6 -3 11.92 14.24
-2 6 -2 1087.73 67.89
-2 6 -2 1097.04 70.72
-2 6 -1 672.02 54.89
-2 6 -1 671.45 57.8
-2 6 0 870.79 61.07
-2 6 1 1112.54 57.17
-2 6 1 1189.48 70.31
-2 6 2 54.35 21.28
-2 6 2 15.42 10.67
-2 6 3 1722.13 63.11
-2 6 4 267.4 22.99
-2 6 4 253.51 21.68
-2 6 5 530.16 29.52
-2 6 5 533.56 30.35
-2 6 6 746.1 34.62
-2 6 6 812.61 36.8
-2 6 7 30.36 9.27
-2 6 7 36.52 9.97
-2 6 8 1863.18 54.88
-2 6 8 2114.83 68.05
-2 6 9 55.63 13.23
-2 6 9 35.11 8.44
-2 6 10 334.23 23.51
-2 6 10 311.42 29.06
-2 6 11 67.64 13.51
-2 6 11 57.19 14.98
-2 6 12 158.82 24.29
-2 6 13 131.58 24.04
-2 6 14 340.16 38.79
-2 6 15 523.84 50.14
-2 6 16 30.53 18.35
-2 7 -4 398.88 43.38
-2 7 -3 -12.64 15.48
-2 7 -2 952.96 68.99
-2 7 -2 905 71.2
-2 7 -1 90.58 25.26
-2 7 -1 37.24 19.36
-2 7 0 644.23 64.64
-2 7 0 670.54 56.93
-2 7 1 58.94 22.07
-2 7 2 498.61 47.6
-2 7 3 139.04 20.35
-2 7 4 768.33 40.74
-2 7 4 737.31 43.01
-2 7 5 115.64 16.9
-2 7 5 118.63 17.72
-2 7 6 715.4 38.73
-2 7 6 715.27 38.35
-2 7 7 168.83 19.1
-2 7 7 193.87 20.96
-2 7 8 -5.03 8.05
-2 7 8 2.22 6.11
-2 7 9 855.8 46.6
-2 7 9 802.34 39.28
-2 7 10 380.13 32.32
-2 7 11 517.52 39.43
-2 7 12 276.62 30.91
-2 7 13 191.49 27.82
-2 7 14 14.74 11.33
-2 8 -4 343.56 46.47
-2 8 -3 1224.35 87.48
-2 8 -2 23.85 17.65
-2 8 -2 26.71 17.77
-2 8 -1 556.43 56.74
-2 8 -1 581.82 64.59
-2 8 0 436.92 50.23
-2 8 0 455.17 58.81
-2 8 1 1056.48 90.46
-2 8 1 1078.98 76.94
-2 8 2 858.14 68.84
-2 8 3 1116.44 77.05
-2 8 4 293.34 28.3
-2 8 5 177.2 22.56
-2 8 5 124.89 19.27
-2 8 6 1167.95 54.71
-2 8 6 1139.18 55.32
-2 8 7 22.59 13.49
-2 8 7 6.95 7.21
-2 8 8 1623.77 66.41
-2 8 9 159.98 22.39
-2 8 10 498.26 39.05
-2 8 11 560.01 41.18
-2 9 -4 962.02 83.25
-2 9 -3 358.08 50.97
-2 9 -2 312.1 46.75
-2 9 -2 333.37 53.83
-2 9 -1 210.16 39.48
-2 9 -1 168.8 38.7
-2 9 0 777.48 80.58
-2 9 0 810.6 72.22
-2 9 1 452.44 53.67
-2 9 1 410.66 61.41
-2 9 2 258.28 42.1
-2 9 2 214.8 49.34
-2 9 3 966.77 97.69
-2 9 3 984.35 77.16
-2 9 4 48.99 15.13
-2 9 4 135.97 34.07
-2 9 5 585.32 41.76
-2 9 6 111.54 19.12
-2 9 7 1324.39 62.5
-2 10 -3 275.22 49.16
-2 10 -2 66.74 33.08
-2 10 -2 156.8 39.53
-2 10 -1 117.58 36.9
-2 10 -1 67.65 24.77
-2 10 0 164.95 40.46
-2 10 0 158.35 33.64
-2 10 1 54.72 21.78
-2 10 1 59.52 29.52
-2 10 2 144.87 41.34
-2 10 2 152.74 33.59
-2 10 3 31.51 24.76
-2 10 3 69.18 26.03
-2 10 4 183.21 37.3
-2 10 4 144.41 44.38
-2 10 4 142.73 22.9
-2 10 5 108.13 32.43
-2 10 5 56.04 24.8
-2 11 -3 131.71 37.88
-2 11 -2 253.77 50.82
-2 11 -2 279.55 46.37
-2 11 -1 188.97 43.32
-2 11 -1 91.63 37.02
-2 11 0 84.5 36.77
-2 11 0 65.6 27.13
-2 11 1 436.19 67.73
-2 11 1 424.21 58.11
-2 11 2 149.74 43.86
-2 11 2 196.82 42.44
-2 11 3 389.66 64.61
-2 11 3 374.1 55.12
-2 11 4 228.1 43.91
-2 11 4 176.63 48.46
-2 11 5 5.65 22.22
-2 11 5 37.2 25.18
-2 11 6 264.63 48.25
-2 11 6 207.14 48.09
-2 11 7 19.17 27.6
-2 11 8 508.71 86.7
-2 12 -2 322.65 61.94
-2 12 -1 125.56 39.97
-2 12 -1 45.85 28.8
-2 12 0 285.11 56.87
-2 12 0 368.05 58.26
-2 12 1 331.71 56.22
-2 12 1 223.37 53.77
-2 12 2 479.48 68.09
-2 12 2 384.02 69.92
-2 12 3 531.98 82.03
-2 12 3 585.26 73.64
-2 12 4 275.29 51.22
-2 12 4 139.1 47.23
-2 12 5 352.2 73.72
-2 12 5 433.52 62.38
-2 12 6 121.27 38.85
-2 12 6 57.57 37.18
-2 12 7 363.86 73.05
-2 12 7 413.05 61.19
-2 12 8 37.24 32.53
-2 12 9 109.71 49.45
-2 12 10 105.66 41.51
-2 12 11 18.65 33.41
-2 12 12 79.17 49.27
-2 13 -1 81.82 30.6
-2 13 0 193.49 45.91
-2 13 0 192.07 45
-2 13 1 306.84 57.7
-2 13 1 205.76 59.29
-2 13 2 429.44 66.25
-2 13 2 265.12 61.18
-2 13 3 20.3 27.84
-2 13 3 137.3 42.21
-2 13 4 337.29 73.66
-2 13 4 365.97 59.73
-2 13 5 105.07 43.41
-2 13 5 191.23 47.97
-2 13 6 134.66 49.49
-2 13 6 220.04 47.29
-2 13 7 46.25 31.28
-2 13 7 101.28 31.73
-2 13 8 135.06 41.25
-2 13 8 88.38 38.06
-2 13 9 206.28 65.18
-2 13 10 70.28 46.97
-2 13 11 124.67 38.85
-2 13 12 21.23 37.16
-2 13 13 107.38 57.83
-2 13 14 -18.39 29.2
-2 13 15 -37.86 38.63
-2 14 0 104.87 37.87
-2 14 1 65.51 32.13
-2 14 2 12.99 27.77
-2 14 2 57.66 30.88
-2 14 3 68.53 29.43
-2 14 3 85.4 37.65
-2 14 4 4 30.51
-2 14 4 59.32 32.89
-2 14 5 105.29 39.49
-2 14 5 12.73 30.67
-2 14 6 115.73 34.71
-2 14 6 228.96 72.35
-2 14 7 75.41 31.85
-2 14 7 15.87 28.85
-2 14 8 316.54 60.26
-2 14 8 286.41 69.31
-2 14 9 47.16 52.28
-2 14 9 60.8 35.25
-2 14 10 261.53 55.59
-2 14 10 213.07 70.78
-2 14 11 31.98 30.59
-2 14 12 15.43 29.84
-2 15 3 94.24 36.79
-2 15 4 -15.48 28.06
-2 15 4 136.48 43.96
-2 15 5 102.79 37.81
-2 15 5 75.64 38.36
-2 15 6 10.93 31.86
-2 15 7 224.21 63.35
-2 15 8 68.51 50.5
-2 15 9 195.9 68.3
-2 16 6 357.23 88.97
-1 -16 2 216.2 51.88
-1 -16 3 49.25 25.18
-1 -16 4 201.68 62.44
-1 -15 -1 75.11 31.29
-1 -15 0 110.29 37.91
-1 -15 1 222.93 51.82
-1 -15 2 26.18 20.39
-1 -15 3 108.85 41.01
-1 -15 4 35.7 33.6
-1 -15 5 112.16 42.14
-1 -15 6 66.13 45.06
-1 -15 7 170.88 48.18
-1 -14 -17 128.66 55.47
-1 -14 -16 71.32 44.37
-1 -14 -15 -4.44 22.72
-1 -14 -14 196.36 55.53
-1 -14 -13 11.22 22.48
-1 -14 -4 45.18 27.63
-1 -14 -3 160.8 40.16
-1 -14 -2 114.04 33.48
-1 -14 -1 51.72 27.27
-1 -14 0 457.04 65.45
-1 -14 1 86.96 34.5
-1 -14 2 476.17 74.44
-1 -14 3 -8.19 26.12
-1 -14 4 298.94 62.15
-1 -14 5 36.82 29.21
-1 -14 6 36.51 31.1
-1 -14 7 159.76 45.7
-1 -14 8 17.31 25.89
-1 -14 9 155.45 50.64
-1 -13 -20 131.55 53.88
-1 -13 -19 25.25 32.84
-1 -13 -18 14.23 28.21
-1 -13 -17 -9.28 25.58
-1 -13 -16 24.11 27.13
-1 -13 -15 102.57 44.1
-1 -13 -14 -6.22 24.04
-1 -13 -13 203.02 52.42
-1 -13 -12 29.3 21.37
-1 -13 -11 176.23 50.84
-1 -13 -6 108.81 31.74
-1 -13 -5 420.09 59.35
-1 -13 -4 397.75 56.48
-1 -13 -3 546.12 67.27
-1 -13 -2 189.04 44.11
-1 -13 -1 832.43 87.59
-1 -13 0 91.06 37.78
-1 -13 1 341.17 56.84
-1 -13 2 34.64 31.9
-1 -13 3 248.5 52.29
-1 -13 4 462.84 71.81
-1 -13 5 102.02 38.14
-1 -13 6 276.86 56.29
-1 -13 7 -1.48 23.79
-1 -13 8 197.24 54.03
-1 -13 9 43.14 31.27
-1 -13 10 103.74 31.19
-1 -13 11 70.08 32.53
-1 -12 -21 194.41 64.07
-1 -12 -20 205.13 58.22
-1 -12 -19 42.28 42.53
-1 -12 -18 170.93 52.51
-1 -12 -17 -41.56 31.1
-1 -12 -16 188.8 51.7
-1 -12 -15 83.58 41.99
-1 -12 -14 171.28 52.42
-1 -12 -13 279.96 58.92
-1 -12 -12 194.89 53.95
-1 -12 -11 620.96 86.51
-1 -12 -10 118.94 45.68
-1 -12 -6 276.98 47.25
-1 -12 -5 152.01 36.31
-1 -12 -4 294.61 49.66
-1 -12 -3 29.38 15.67
-1 -12 -2 325.73 50.51
-1 -12 -1 10.14 19.69
-1 -12 0 286.08 48.4
-1 -12 1 201.19 45.69
-1 -12 2 212.03 44.2
-1 -12 3 369.41 59.59
-1 -12 4 74.33 33.77
-1 -12 5 266.39 52
-1 -12 6 57.03 35.29
-1 -12 7 434.54 69.39
-1 -12 8 119.49 37.27
-1 -12 9 100.55 37.64
-1 -12 10 225.55 55.64
-1 -12 11 17.51 22.66
-1 -12 12 151.05 46.92
-1 -12 13 5.39 28.32
-1 -11 -22 44.9 36.04
-1 -11 -21 216.62 65.43
-1 -11 -20 78.22 43.37
-1 -11 -19 113.37 47.56
-1 -11 -18 52.73 30.57
-1 -11 -17 208.74 55.91
-1 -11 -16 33.61 20.67
-1 -11 -15 340.4 65.95
-1 -11 -14 415.1 69.21
-1 -11 -13 107.8 43.24
-1 -11 -12 1002.71 107.14
-1 -11 -11 110.7 43.14
-1 -11 -10 1240.54 113.41
-1 -11 -9 55.3 36.24
-1 -11 -8 227.86 47.66
-1 -11 -6 206.44 42.07
-1 -11 -5 1030.01 83.99
-1 -11 -4 142.8 39.51
-1 -11 -3 911.39 80.42
-1 -11 -2 424.17 58.27
-1 -11 -1 948.72 83.32
-1 -11 0 382.9 55.61
-1 -11 1 262.78 49.72
-1 -11 2 1057.45 93.15
-1 -11 3 15.05 20.24
-1 -11 4 298.39 51.58
-1 -11 5 253.35 39.21
-1 -11 5 203.71 45.04
-1 -11 6 349.33 44.95
-1 -11 6 367.76 64.42
-1 -11 7 432.53 68.71
-1 -11 8 258.75 54.71
-1 -11 9 706.04 87.45
-1 -11 10 3.67 22.77
-1 -11 11 336.69 64.35
-1 -11 12 35.97 27.54
-1 -11 13 140.42 43.65
-1 -11 14 57.65 29.47
-1 -11 15 94.78 43.64
-1 -10 -23 98.12 48.02
-1 -10 -22 95.91 44.67
-1 -10 -21 4.34 23.16
-1 -10 -20 260.26 57.6
-1 -10 -19 57.79 31.03
-1 -10 -18 103.85 38.46
-1 -10 -17 46.87 30.24
-1 -10 -16 63.06 29.09
-1 -10 -15 245.58 53.31
-1 -10 -14 55.67 31.43
-1 -10 -13 176.92 44.25
-1 -10 -12 2.79 20
-1 -10 -11 13.29 20.04
-1 -10 -10 521.73 70.67
-1 -10 -9 314.44 55.84
-1 -10 -8 770.56 83.16
-1 -10 -7 359.57 58.04
-1 -10 -6 366.72 47.28
-1 -10 -5 26.23 20.05
-1 -10 -4 620.34 61.97
-1 -10 -3 551.42 60.78
-1 -10 -2 549.11 59.89
-1 -10 -1 875.27 76.37
-1 -10 0 101.93 26.95
-1 -10 1 837.85 76.08
-1 -10 2 13.32 20.05
-1 -10 3 219.53 35.76
-1 -10 3 240.14 46.96
-1 -10 4 650.58 57.83
-1 -10 4 534.7 66.5
-1 -10 5 323.23 40.07
-1 -10 5 343.84 56.21
-1 -10 6 374.52 58.67
-1 -10 6 378.81 44.2
-1 -10 7 110.38 32.57
-1 -10 7 112.87 25.74
-1 -10 8 -16.32 20.33
-1 -10 8 1.88 12.72
-1 -10 9 -25.68 23.8
-1 -10 10 238.49 53.42
-1 -10 11 18.23 25.99
-1 -10 12 67.06 33.77
-1 -10 13 51.17 35.81
-1 -10 14 -11.1 22.8
-1 -10 15 215.03 54.88
-1 -10 16 39.37 31.38
-1 -10 17 104.59 44.83
-1 -9 -24 -2.33 31.32
-1 -9 -23 106.56 44.69
-1 -9 -22 45.81 31.74
-1 -9 -21 208.28 56.27
-1 -9 -20 20.29 29.41
-1 -9 -19 118.48 38.73
-1 -9 -18 -3.68 20.23
-1 -9 -17 28.47 23.99
-1 -9 -16 265.66 56.1
-1 -9 -15 -29.57 27.94
-1 -9 -14 97.24 34.89
-1 -9 -13 302.69 54.03
-1 -9 -12 130.31 37.9
-1 -9 -11 55.91 24.53
-1 -9 -10 121.6 35.17
-1 -9 -9 58.62 27.94
-1 -9 -8 78.23 27.14
-1 -9 -7 459.46 59.8
-1 -9 -6 87.32 23.42
-1 -9 -6 115.54 33.25
-1 -9 -5 498.74 53.23
-1 -9 -4 795.26 66.42
-1 -9 -3 394.13 46.35
-1 -9 -2 1027.49 76.27
-1 -9 -1 80.06 28.15
-1 -9 0 1255.07 88.29
-1 -9 1 227.83 41.78
-1 -9 2 656 56.04
-1 -9 2 643.55 65.52
-1 -9 3 372.41 41.72
-1 -9 3 409.02 53.13
-1 -9 4 94.6 23.58
-1 -9 4 123.77 32.14
-1 -9 5 86.81 34.09
-1 -9 5 66.78 18.21
-1 -9 6 11.48 12.74
-1 -9 6 36.5 23.98
-1 -9 7 83.38 31.99
-1 -9 7 12.75 13.61
-1 -9 8 42.66 17.56
-1 -9 8 90.33 33.51
-1 -9 9 540.93 70.49
-1 -9 9 523.72 49.27
-1 -9 10 29.95 30.94
-1 -9 11 186.84 46.01
-1 -9 12 403.76 64.1
-1 -9 13 -12.54 26.81
-1 -9 14 129.26 39.03
-1 -9 15 -28.84 24.05
-1 -9 16 61.68 37
-1 -9 17 179.18 50.37
-1 -9 18 39.86 32.47
-1 -8 -24 54.51 35.8
-1 -8 -23 7.94 30.32
-1 -8 -22 57.18 36.82
-1 -8 -21 30.16 22.07
-1 -8 -20 5.82 21.51
-1 -8 -19 192.85 47.99
-1 -8 -18 12.93 22.46
-1 -8 -17 239.23 50.78
-1 -8 -16 82.38 31.29
-1 -8 -15 1606.03 123.8
-1 -8 -14 137.38 39.7
-1 -8 -13 386.67 58.19
-1 -8 -12 1011.59 90.85
-1 -8 -11 60.16 27.2
-1 -8 -10 1958.98 122.36
-1 -8 -9 89.81 26.86
-1 -8 -8 1039.1 84.91
-1 -8 -7 383.11 51.76
-1 -8 -6 1497.86 99.99
-1 -8 -5 447.64 47.09
-1 -8 -5 485.32 55.45
-1 -8 -4 180.63 31.21
-1 -8 -3 1778.58 94.91
-1 -8 -2 49.14 22.6
-1 -8 -1 1489.38 88.2
-1 -8 0 440.09 49.26
-1 -8 1 719.51 63.32
-1 -8 2 1021.94 76.86
-1 -8 2 1005.01 64.17
-1 -8 3 65.12 19.5
-1 -8 3 67.53 25.09
-1 -8 4 2079.44 92.97
-1 -8 4 2097.84 117.3
-1 -8 5 35.49 15.67
-1 -8 5 31.95 20.38
-1 -8 6 965.02 61.81
-1 -8 6 893.13 79.64
-1 -8 7 292.13 48.61
-1 -8 7 330.69 36.69
-1 -8 8 1789.08 117.76
-1 -8 8 1720.43 84.31
-1 -8 9 379.85 40.03
-1 -8 9 336.22 55.71
-1 -8 10 40.36 24.76
-1 -8 10 12.32 9.21
-1 -8 11 1317.75 108.06
-1 -8 11 1205.25 72.75
-1 -8 12 174.22 44.63
-1 -8 13 531.85 73.3
-1 -8 14 25.69 23.96
-1 -8 15 75.65 33.33
-1 -8 16 155.67 46.87
-1 -8 17 6.5 24.23
-1 -8 18 29.31 21.18
-1 -8 19 35.16 27.91
-1 -7 -25 115.51 47.66
-1 -7 -24 18.47 26.52
-1 -7 -23 45.35 37.87
-1 -7 -22 58.34 32.23
-1 -7 -21 54.1 31.52
-1 -7 -20 329.51 64.85
-1 -7 -19 18.1 20.73
-1 -7 -18 403.17 65.87
-1 -7 -17 81.43 35.11
-1 -7 -16 114.61 33.92
-1 -7 -15 685.87 77.69
-1 -7 -14 78.08 28.9
-1 -7 -13 1554.52 112.07
-1 -7 -12 359.14 52.62
-1 -7 -11 982.01 83.9
-1 -7 -10 133.5 34.06
-1 -7 -9 1007.85 81.2
-1 -7 -8 882.09 74.73
-1 -7 -7 238.82 38.58
-1 -7 -6 481.89 52.88
-1 -7 -5 -1.86 12.59
-1 -7 -5 -0.73 12.62
-1 -7 -4 113.8 23.15
-1 -7 -4 171 33.16
-1 -7 -3 119.51 24.34
-1 -7 -2 265.72 35.69
-1 -7 -1 99.32 23.68
-1 -7 0 14.67 11.95
-1 -7 1 167.83 25.08
-1 -7 1 190.87 32.59
-1 -7 2 9.88 8.52
-1 -7 2 26.89 16.26
-1 -7 3 359.26 35.52
-1 -7 3 370.98 44.66
-1 -7 4 64.07 16.3
-1 -7 4 58.54 20.38
-1 -7 5 701.54 48.71
-1 -7 5 763.81 68.51
-1 -7 6 939.51 76.66
-1 -7 6 917.67 56.24
-1 -7 7 459.99 56.68
-1 -7 7 441.75 38.86
-1 -7 8 668.08 48.5
-1 -7 8 673.89 69.46
-1 -7 9 93.83 31.31
-1 -7 9 101.29 21.36
-1 -7 10 1227.26 97.99
-1 -7 10 1109.88 65.18
-1 -7 11 213.11 42.76
-1 -7 12 1113.9 98.23
-1 -7 13 97.35 32.34
-1 -7 14 101.51 37.6
-1 -7 15 369.38 60.68
-1 -7 16 41.56 26.92
-1 -7 17 263.72 57.69
-1 -7 18 34.29 32.95
-1 -7 19 151.76 46.23
-1 -7 20 32.37 25.92
-1 -7 21 13.68 25.25
-1 -6 -25 7.03 23.79
-1 -6 -24 93.22 37.95
-1 -6 -23 94.6 38.9
-1 -6 -22 41.57 24.65
-1 -6 -21 121.82 40.72
-1 -6 -20 13.39 26.09
-1 -6 -19 27.7 22.54
-1 -6 -18 145.76 40.1
-1 -6 -17 692.22 80.59
-1 -6 -16 589.09 73.23
-1 -6 -15 740.33 78.09
-1 -6 -14 41.91 20.66
-1 -6 -13 107.44 31.07
-1 -6 -12 610.27 63.11
-1 -6 -11 -2.1 12.99
-1 -6 -10 357.06 45.81
-1 -6 -9 1483.63 91.7
-1 -6 -8 485.73 51.86
-1 -6 -7 1197.12 77.22
-1 -6 -6 253.84 37
-1 -6 -5 1672.66 90.33
-1 -6 -4 49.95 18.8
-1 -6 -4 68.12 20.08
-1 -6 -3 2438.07 108.73
-1 -6 -3 2317.89 96.47
-1 -6 -2 2987.64 110.88
-1 -6 -1 999.53 62.65
-1 -6 0 5259.41 156.46
-1 -6 1 534.45 40.55
-1 -6 1 541.78 48.7
-1 -6 2 1172.79 72.44
-1 -6 2 1225.68 60.63
-1 -6 3 284.72 28.4
-1 -6 3 392.63 45.01
-1 -6 4 907.99 51.55
-1 -6 4 983.96 69.44
-1 -6 5 801.53 64.43
-1 -6 5 843.64 49.18
-1 -6 6 195.54 35.35
-1 -6 6 198.51 24.04
-1 -6 7 1730.69 73.7
-1 -6 7 1792.62 103.41
-1 -6 8 104.2 26.85
-1 -6 9 440.96 55.01
-1 -6 10 89.16 24.27
-1 -6 11 211.04 42.32
-1 -6 12 62.11 25.95
-1 -6 13 31.93 23.73
-1 -6 14 1358.39 110.01
-1 -6 15 34.43 23.84
-1 -6 16 298.92 55.56
-1 -6 17 5.1 18.32
-1 -6 18 -32.34 30.21
-1 -6 19 114.01 41.47
-1 -6 20 30.56 26.47
-1 -6 21 239.04 57.52
-1 -6 22 3.33 24.6
-1 -5 -25 -11.43 30.7
-1 -5 -24 282.63 67.96
-1 -5 -23 12.36 24.04
-1 -5 -22 357.89 68.08
-1 -5 -21 106.36 47.31
-1 -5 -20 93.29 36.08
-1 -5 -19 291.62 58.35
-1 -5 -18 196.55 45.31
-1 -5 -17 142.3 40.97
-1 -5 -16 -1.9 18.81
-1 -5 -15 874.2 83.22
-1 -5 -14 -11.08 16.2
-1 -5 -13 577.02 62.61
-1 -5 -12 109.8 26.85
-1 -5 -11 199.22 32.63
-1 -5 -10 1518.92 90.23
-1 -5 -9 115.91 26.6
-1 -5 -8 1745.27 90.6
-1 -5 -7 39.67 18.86
-1 -5 -6 697.24 54.18
-1 -5 -5 1614.82 81.34
-1 -5 -4 179.42 25.76
-1 -5 -4 159.44 26.75
-1 -5 -3 1672.49 75.83
-1 -5 -3 1788.13 84.45
-1 -5 -2 25.04 14.73
-1 -5 -1 3289.94 110.13
-1 -5 0 73.5 20.74
-1 -5 1 1772 81.57
-1 -5 1 1739.06 66.8
-1 -5 2 391.93 39.15
-1 -5 2 391.02 29.93
-1 -5 3 1038.56 49.73
-1 -5 3 1075.04 66.06
-1 -5 4 1298.18 55.66
-1 -5 4 1394.94 77.42
-1 -5 5 -1.38 7.95
-1 -5 5 -1.95 15.28
-1 -5 6 1477.42 86.22
-1 -5 7 337.45 43.51
-1 -5 8 998.42 73.34
-1 -5 9 356.15 47.59
-1 -5 10 234.91 39.14
-1 -5 11 761.56 71.27
-1 -5 12 140.83 36.69
-1 -5 13 1070.12 89.83
-1 -5 14 68.67 31.63
-1 -5 15 207.58 42.28
-1 -5 16 120.8 39.08
-1 -5 17 121.11 40.67
-1 -5 18 281.71 55.44
-1 -5 19 47.15 28.23
-1 -5 20 279.51 61.37
-1 -5 21 44.35 26.78
-1 -5 22 186.35 51.66
-1 -5 23 28.22 30.45
-1 -4 -25 94.81 50.18
-1 -4 -24 25.5 23.43
-1 -4 -23 252.14 59.43
-1 -4 -22 81.46 38.65
-1 -4 -21 134.39 47.51
-1 -4 -20 293.89 58.6
-1 -4 -19 42.9 21.38
-1 -4 -18 813.71 87.58
-1 -4 -17 -23.74 19.97
-1 -4 -16 456.37 61.39
-1 -4 -15 623.71 67.76
-1 -4 -14 606.05 65.1
-1 -4 -13 777.36 71.07
-1 -4 -12 23.97 15.27
-1 -4 -11 2383.56 115.05
-1 -4 -10 71.77 21.47
-1 -4 -9 854.54 61.68
-1 -4 -8 468.62 43.84
-1 -4 -7 2138.56 91.46
-1 -4 -6 1418 67.39
-1 -4 -6 1579.25 73.94
-1 -4 -5 2189.57 80.05
-1 -4 -5 2234.78 86.49
-1 -4 -4 855.67 51.47
-1 -4 -3 123.98 19.55
-1 -4 -3 113.21 20.06
-1 -4 -2 981.83 51.62
-1 -4 -2 966.83 53.56
-1 -4 -1 15.34 10.26
-1 -4 -1 12.05 10.31
-1 -4 0 30.97 11.56
-1 -4 0 55.79 18.8
-1 -4 1 1081.67 45.64
-1 -4 1 1097.82 64.71
-1 -4 1 1089.21 57.46
-1 -4 2 423.28 40.46
-1 -4 2 402.42 26.7
-1 -4 2 429.62 37.26
-1 -4 3 1081.98 44.27
-1 -4 3 1193.25 68.17
-1 -4 3 1190.21 64.09
-1 -4 4 705.44 35.93
-1 -4 4 732.08 52.43
-1 -4 5 2810.43 109.48
-1 -4 6 461.1 44.94
-1 -4 7 682.66 56.47
-1 -4 8 923.75 67.61
-1 -4 9 701.75 61.39
-1 -4 10 1139.43 80.48
-1 -4 11 6.38 13.38
-1 -4 12 977.84 79.19
-1 -4 13 1.52 15.51
-1 -4 14 715.31 73.63
-1 -4 15 162.37 37.35
-1 -4 16 102.34 31.35
-1 -4 17 472.67 66.23
-1 -4 18 67.54 28.66
-1 -4 19 82.12 32.87
-1 -4 20 10.02 20.14
-1 -4 21 51.75 30.48
-1 -4 22 43.48 30.04
-1 -4 23 36.65 35.33
-1 -4 24 71.65 41.41
-1 -3 -25 22.94 28.89
-1 -3 -24 97.77 41.56
-1 -3 -23 85.51 33.48
-1 -3 -22 45.95 34.65
-1 -3 -21 352.89 67.62
-1 -3 -20 46.62 32
-1 -3 -19 39.37 29.8
-1 -3 -18 340.11 58.95
-1 -3 -17 583.55 72.66
-1 -3 -16 868.9 84.63
-1 -3 -15 406.64 54.81
-1 -3 -14 206.49 39.55
-1 -3 -13 17.77 16.28
-1 -3 -12 99.63 27.61
-1 -3 -11 -4.55 13.55
-1 -3 -10 1763.41 91.64
-1 -3 -9 63.18 21.71
-1 -3 -8 2311.96 95.25
-1 -3 -7 582.84 44.24
-1 -3 -7 634.93 46.25
-1 -3 -6 966.49 53.63
-1 -3 -6 945.97 52.63
-1 -3 -5 783.21 45.34
-1 -3 -5 745.99 44.15
-1 -3 -4 248.48 24.23
-1 -3 -4 269.57 25.64
-1 -3 -3 2558.34 78.61
-1 -3 -2 246.41 25.02
-1 -3 -2 230.71 23.53
-1 -3 -1 2175.07 71.91
-1 -3 -1 2142.34 83.57
-1 -3 0 3782.49 99.54
-1 -3 0 3718.4 112.58
-1 -3 1 257.27 29.23
-1 -3 1 246.37 17.8
-1 -3 1 253.11 25.49
-1 -3 2 2864.68 89.97
-1 -3 2 3043.32 101.81
-1 -3 2 2786.22 65.26
-1 -3 3 15.27 10.48
-1 -3 3 12.4 6.2
-1 -3 3 -0.11 4.46
-1 -3 4 574.54 42.13
-1 -3 4 571.64 35.82
-1 -3 5 2366.38 90.78
-1 -3 5 2032.3 72.55
-1 -3 6 123.49 24.78
-1 -3 7 1706.44 84.53
-1 -3 8 700.32 56.19
-1 -3 9 1024.72 70.11
-1 -3 10 50.64 20.77
-1 -3 11 146.46 29.94
-1 -3 12 57.49 23.41
-1 -3 13 93.72 26.03
-1 -3 14 1333.02 94.91
-1 -3 15 -22.37 17.15
-1 -3 16 1177.65 96.19
-1 -3 17 189.51 38.39
-1 -3 18 30.16 23.61
-1 -3 19 129.43 38.11
-1 -3 20 206.11 48.59
-1 -3 21 456.33 71.23
-1 -3 22 -4.18 20.75
-1 -3 23 78.55 35.51
-1 -3 24 -18.9 30.71
-1 -3 25 19.49 32.6
-1 -2 -25 43.55 34.22
-1 -2 -24 260 66.58
-1 -2 -23 75.61 41.12
-1 -2 -22 382.57 69.96
-1 -2 -21 106.47 42.09
-1 -2 -20 494.4 78.1
-1 -2 -19 156.62 42.21
-1 -2 -18 207.88 47.73
-1 -2 -7 20.68 11.15
-1 -2 -7 33.3 12.41
-1 -2 -6 8 7.22
-1 -2 -6 18.29 10.44
-1 -2 -5 2963.72 89.2
-1 -2 -5 2756.34 83.47
-1 -2 -4 1968.19 62.58
-1 -2 -4 1933.84 66.43
-1 -2 -3 494.58 27.21
-1 -2 -3 500.31 30.25
-1 -2 -2 2766.22 72.35
-1 -2 -2 2655.27 64.58
-1 -2 -2 2841 88.24
-1 -2 -1 1202.97 45.72
-1 -2 -1 1208.11 39.9
-1 -2 0 20.69 9.64
-1 -2 0 20.73 8.47
-1 -2 1 111.36 15.72
-1 -2 2 4418.61 103.69
-1 -2 2 4174.18 89.05
-1 -2 3 457.57 32.47
-1 -2 3 413.28 24.76
-1 -2 4 101.85 17.55
-1 -2 5 1525.93 66.05
-1 -2 6 118.88 19.77
-1 -2 7 210.66 28.39
-1 -2 8 1533.35 77
-1 -2 9 163.81 28.34
-1 -2 10 59.44 20.75
-1 -2 11 796.68 62.42
-1 -2 12 553.26 54.92
-1 -2 13 272.64 18.89
-1 -2 13 385.52 47.86
-1 -2 14 74.28 10.46
-1 -2 14 120.25 29.68
-1 -2 15 441.31 55.14
-1 -2 16 99.63 28.85
-1 -2 17 30.01 23.11
-1 -2 18 221.99 44.03
-1 -2 19 305.41 54.15
-1 -2 20 261.3 52.47
-1 -2 21 51.48 31.89
-1 -2 22 191.58 50.56
-1 -2 23 31.91 25.47
-1 -2 24 245.2 59.31
-1 -2 25 11.15 27.3
-1 -2 26 16.34 27.66
-1 -1 -25 27.95 32.84
-1 -1 -24 12.44 27.67
-1 -1 -23 259.42 63.71
-1 -1 -6 1899.12 74.79
-1 -1 -5 3195.2 92.68
-1 -1 -4 3053.42 83.24
-1 -1 -3 33.07 8.72
-1 -1 3 1055.58 41.48
-1 -1 4 383.48 27.26
-1 -1 5 6682.92 142.05
-1 -1 5 6402.47 105.86
-1 -1 6 124.36 19.1
-1 -1 6 118.06 10.84
-1 -1 7 3270.97 102.01
-1 -1 8 215.6 27.01
-1 -1 9 1514.18 74.3
-1 -1 10 1738.85 83.75
-1 -1 11 12.25 11.92
-1 -1 12 995.79 68.83
-1 -1 13 426.13 47.31
-1 -1 14 802.89 67.11
-1 -1 15 144.09 30.6
-1 -1 16 109.81 29.68
-1 -1 17 241.79 42.68
-1 -1 18 0.58 15.01
-1 -1 19 81.92 29.74
-1 -1 20 -16.08 20.62
-1 -1 21 56.67 27.35
-1 -1 22 155.18 40.36
-1 -1 23 72.65 34.9
-1 -1 24 43.82 27.69
-1 -1 25 9.91 27.57
-1 -1 26 99.07 39.45
-1 0 -6 41.71 13.52
-1 0 -5 1729.65 66.2
-1 0 -4 287.87 24.19
-1 0 -3 3826.55 88.36
-1 0 3 127.56 12.52
-1 0 3 142.49 13.2
-1 0 4 1987.77 54.93
-1 0 5 14.29 7.5
-1 0 5 24.46 11.47
-1 0 6 1467.73 55.52
-1 0 6 1272.07 53.75
-1 0 7 39.55 13.26
-1 0 7 11.57 8.47
-1 0 8 330.43 30.55
-1 0 9 1730.07 75.3
-1 0 10 39 16.27
-1 0 11 2260.56 96.92
-1 0 12 -6.54 13.62
-1 0 13 372.88 42.62
-1 0 14 512.43 51.93
-1 0 15 313.41 42.21
-1 0 16 796.75 70.51
-1 0 17 17.24 17.48
-1 0 18 250.58 43.64
-1 0 19 25.73 23.29
-1 0 20 160.64 41.33
-1 0 21 192.88 43.4
-1 0 22 297.21 55.26
-1 0 23 60.46 32.31
-1 0 24 56.11 30.49
-1 0 25 92.79 37.59
-1 1 -6 3890.28 114.89
-1 1 -5 1144.61 54.31
-1 1 -4 794.54 41.28
-1 1 -3 1917.84 60.11
-1 1 -2 4211.44 87.98
-1 1 3 7617.72 151
-1 1 3 7704.23 142.93
-1 1 3 7707.41 152.68
-1 1 3 7730.69 120.88
-1 1 4 139.8 18.85
-1 1 4 162.43 11.74
-1 1 4 154.57 14.04
-1 1 4 127.12 18.12
-1 1 5 21.04 7.02
-1 1 5 20.93 11.69
-1 1 5 19.58 7.36
-1 1 6 4556.73 99.72
-1 1 6 4551.95 122.92
-1 1 6 4526.32 107.4
-1 1 7 676.06 36.96
-1 1 7 676.96 40.32
-1 1 7 631.23 45.08
-1 1 8 1540.37 66.91
-1 1 8 1623.66 62.97
-1 1 8 1466.45 71.01
-1 1 9 457.6 35.82
-1 1 9 428.97 37.22
-1 1 10 1037.36 57.04
-1 1 10 1007.76 60.23
-1 1 11 83.93 18.7
-1 1 12 873.75 59
-1 1 13 1574.14 83.38
-1 1 14 1008.4 69.78
-1 1 15 577.93 54.72
-1 1 16 194.43 33.6
-1 1 17 223.53 37.25
-1 1 18 31.94 18.87
-1 1 19 292.53 46.82
-1 1 20 59.26 25.41
-1 1 21 329.39 51.93
-1 1 22 54.99 27.3
-1 1 23 60.68 26.41
-1 1 24 148.38 40.57
-1 2 -5 3909.63 113.13
-1 2 -4 82.38 17
-1 2 -3 1838.97 63.11
-1 2 -2 962.71 35.98
-1 2 -2 1003.12 33.98
-1 2 -2 1134.06 43.29
-1 2 -1 2320.67 62.16
-1 2 -1 2406.09 65.57
-1 2 0 5147.44 105.16
-1 2 0 5246.22 95.66
-1 2 0 4791.42 124.03
-1 2 1 246.53 13.85
-1 2 1 196.95 20.05
-1 2 1 207.49 23.34
-1 2 2 3794.22 95.28
-1 2 2 3768.1 103.51
-1 2 3 18.18 4.39
-1 2 3 10.34 6.82
-1 2 3 18.38 11.43
-1 2 4 4.1 8.29
-1 2 4 16.63 5.96
-1 2 4 7.18 8.62
-1 2 5 5281.52 105.01
-1 2 5 5082.06 139.77
-1 2 5 5385.38 135.59
-1 2 6 257.99 21.81
-1 2 6 295.82 33.28
-1 2 7 540.25 34.8
-1 2 8 182.19 22.67
-1 2 9 884.4 52.81
-1 2 10 477.2 40.75
-1 2 11 412.78 41.16
-1 2 12 325.19 38.21
-1 2 12 331.44 35.09
-1 2 13 13.95 11.88
-1 2 13 12.04 10.46
-1 2 14 174.88 28.7
-1 2 15 16.34 11.23
-1 2 16 241.63 37.15
-1 2 17 344.62 46.75
-1 2 18 16.42 17.61
-1 2 19 566.9 62.47
-1 2 20 -4.01 16.9
-1 2 21 263.81 49.25
-1 2 22 47.01 29.56
-1 3 -9 458.35 19.52
-1 3 -4 27.76 13.04
-1 3 -3 8423.36 154.18
-1 3 -3 8505.95 158.58
-1 3 -3 8744.54 175.41
-1 3 -2 256.27 24.77
-1 3 -2 305.31 23.18
-1 3 -2 284.81 23.95
-1 3 -1 1534.42 59.19
-1 3 -1 1378.18 52.83
-1 3 0 1998.74 83.76
-1 3 0 1847.61 57.22
-1 3 0 1921.98 65.61
-1 3 1 2418.7 79.8
-1 3 1 2419.38 61.4
-1 3 1 2465.19 92.79
-1 3 2 381.8 31.17
-1 3 2 353.25 19.49
-1 3 2 421.89 36.79
-1 3 3 181.97 24.58
-1 3 3 190.34 13.48
-1 3 3 184.01 22.16
-1 3 3 173.5 12.99
-1 3 4 8610.35 197.69
-1 3 4 8694.07 188.56
-1 3 4 8544.18 140.94
-1 3 4 8314.96 136.4
-1 3 5 49.42 8.42
-1 3 5 63.25 10.58
-1 3 6 44.1 9.91
-1 3 7 140.61 17.51
-1 3 8 104.81 17.46
-1 3 9 50.77 13.97
-1 3 10 1019.51 58.02
-1 3 11 516.26 43.47
-1 3 12 210.73 30.44
-1 3 13 531.2 48.77
-1 3 14 18.88 13.37
-1 3 15 227.28 33.38
-1 3 15 147.13 28.89
-1 3 16 256.18 40.28
-1 3 16 316.23 40.13
-1 3 17 162.89 30.49
-1 3 18 310.2 44.01
-1 3 19 -14.1 15.89
-1 3 20 212.32 40.87
-1 3 21 38.49 21.97
-1 4 -4 112.71 16.05
-1 4 -3 154.09 19.64
-1 4 -3 142.09 18.04
-1 4 -2 1172.03 51.16
-1 4 -2 1232.23 59.75
-1 4 -2 1291.09 61.65
-1 4 -2 1217.85 59.31
-1 4 -1 1920.93 70.92
-1 4 -1 2061.27 78.54
-1 4 -1 2056.27 82.94
-1 4 0 1088.2 48.55
-1 4 0 1102.1 55.49
-1 4 1 1713.87 58.6
-1 4 1 1651.24 72.39
-1 4 2 217.68 19.42
-1 4 3 2934.36 75.22
-1 4 3 3233.72 74.68
-1 4 4 148.27 15.46
-1 4 4 109.68 12.61
-1 4 5 132.85 14.96
-1 4 5 130 14.68
-1 4 6 313.88 25.55
-1 4 6 293.73 23.06
-1 4 7 225.1 20.88
-1 4 7 272.21 26.04
-1 4 8 3416.29 98.06
-1 4 9 1543.41 66.93
-1 4 10 1147.23 61.25
-1 4 11 310.75 33.72
-1 4 12 1047.39 65.76
-1 4 13 113.47 23.1
-1 4 14 475.37 49.05
-1 4 15 174.35 33.94
-1 4 16 94.37 24.31
-1 4 16 97.59 22.34
-1 4 17 181.48 34.7
-1 4 17 219.07 32.97
-1 4 18 41.9 18.92
-1 4 19 435.55 50.84
-1 5 -12 249.08 15.95
-1 5 -5 1337.99 54.72
-1 5 -4 453.31 33.34
-1 5 -3 1380.21 59.91
-1 5 -3 1491.25 72.83
-1 5 -2 1157.72 64.28
-1 5 -2 1175.21 66.89
-1 5 -1 467.11 40.45
-1 5 -1 461.85 43.91
-1 5 0 205.95 32.52
-1 5 0 184.88 26.2
-1 5 0 175.53 23.13
-1 5 1 2.18 7.47
-1 5 2 220.9 22.82
-1 5 3 301.42 25.2
-1 5 4 1348.86 51.91
-1 5 4 1385.75 52.5
-1 5 5 1690.36 59.76
-1 5 5 1637.7 56.88
-1 5 6 943.84 43.46
-1 5 6 1010.09 46.16
-1 5 7 1405.46 54.37
-1 5 7 1311.81 56.62
-1 5 8 612.45 36.82
-1 5 8 614.84 40.04
-1 5 9 123.33 17.89
-1 5 9 123.97 19.78
-1 5 10 1115.61 59.94
-1 5 11 1078.66 62.38
-1 5 12 353.53 37.44
-1 5 13 240.52 32.77
-1 5 14 527.25 50.64
-1 5 15 30.47 16.88
-1 5 16 370.1 46.16
-1 5 17 -9.01 16.1
-1 5 18 195.64 33.7
-1 5 18 200.42 38.59
-1 5 19 4.04 17.53
-1 6 -6 65.6 14.27
-1 6 -5 133.17 19.97
-1 6 -4 66.88 15.33
-1 6 -3 1831.8 89.17
-1 6 -3 1947.19 94.39
-1 6 -2 153.98 29.27
-1 6 -2 223.25 33.78
-1 6 -1 1465.13 78.15
-1 6 -1 1446.8 84.47
-1 6 0 184.92 35.44
-1 6 0 213.15 31.93
-1 6 1 21.26 12.64
-1 6 1 21.69 19.86
-1 6 2 1.14 8.44
-1 6 3 1499.43 64.19
-1 6 4 682.12 42.29
-1 6 4 767.73 42.22
-1 6 5 935.66 47.97
-1 6 5 940.07 48.32
-1 6 6 904.95 46.02
-1 6 6 896.08 47.4
-1 6 7 149.94 19.99
-1 6 7 141.07 20.39
-1 6 8 19.77 9.32
-1 6 8 30.73 10.44
-1 6 9 320.52 29.43
-1 6 9 326.43 32.23
-1 6 10 874.45 54.03
-1 6 10 873.17 49.97
-1 6 11 656.82 49.61
-1 6 11 610.47 44.05
-1 6 12 148.26 23.25
-1 6 12 198.54 29.72
-1 6 13 131.53 25.84
-1 6 14 54.5 19.99
-1 6 15 119.83 26.26
-1 6 16 25.96 18.57
-1 6 17 143.05 31.13
-1 6 18 211.33 38.59
-1 6 19 49.93 22.29
-1 6 20 316.63 48.97
-1 7 -6 862.74 50.86
-1 7 -3 0.51 12.51
-1 7 -3 25.96 15.46
-1 7 -2 2375.49 109.54
-1 7 -2 2394.31 117.33
-1 7 -1 202.03 34.16
-1 7 -1 112.68 30.52
-1 7 0 307.82 37.95
-1 7 0 312.57 46.11
-1 7 1 395.64 42.37
-1 7 1 422.67 52.7
-1 7 2 340.39 51.91
-1 7 4 3.75 7.54
-1 7 4 17.88 10.4
-1 7 5 2453.9 88.12
-1 7 5 2668.29 90.51
-1 7 6 220.46 25.51
-1 7 6 247.19 27.51
-1 7 7 427.44 34.4
-1 7 7 454.53 36.42
-1 7 8 813.62 47.3
-1 7 8 794.64 49.34
-1 7 9 685.92 44.29
-1 7 9 680.92 47.95
-1 7 10 327.99 32.01
-1 7 10 306.45 33.9
-1 7 11 2.9 11.2
-1 7 12 812.54 57.84
-1 7 13 605.75 50.9
-1 7 14 1145.89 74.41
-1 7 15 465.2 48.38
-1 7 16 -19.26 19.96
-1 7 17 352.94 46.76
-1 8 -3 427.61 54.23
-1 8 -3 443.35 50.44
-1 8 -2 154.19 32.07
-1 8 -2 108.42 30.55
-1 8 -1 682.8 68.62
-1 8 -1 591.8 57.22
-1 8 0 256.17 45.94
-1 8 0 267.41 38.38
-1 8 1 110.93 31.44
-1 8 1 113.59 27.87
-1 8 2 907.77 69.6
-1 8 2 798.38 79.7
-1 8 3 81.2 29.61
-1 8 4 395.62 35.97
-1 8 4 409.73 61.66
-1 8 5 430.45 37.79
-1 8 6 485.54 40.42
-1 8 7 247.74 29.58
-1 8 8 180.41 26.3
-1 8 8 157.62 23.87
-1 8 9 1038.73 61.52
-1 8 10 15.1 12.64
-1 8 11 994.29 63.5
-1 8 12 197.34 29.23
-1 8 13 1213.45 74.01
-1 8 14 10.71 12.49
-1 9 -3 126.05 32.16
-1 9 -3 87.11 30.77
-1 9 -2 803.13 71.54
-1 9 -2 766.33 76.89
-1 9 -1 1044.53 91.81
-1 9 -1 1096.58 83.44
-1 9 0 216.71 46.09
-1 9 0 310.65 47.84
-1 9 1 1297.23 88.42
-1 9 1 1381.8 109.78
-1 9 2 358.89 49.42
-1 9 2 225.8 47.43
-1 9 3 763.36 83.46
-1 9 4 1174 66.29
-1 9 4 1257.37 111.59
-1 9 5 227.41 31.31
-1 9 5 153.67 43.25
-1 9 6 1011.25 62.22
-1 9 7 96.56 22.28
-1 9 8 231.33 30.63
-1 9 9 150.96 24.78
-1 9 10 119.06 24.23
-1 9 11 197.84 30.82
-1 10 -3 121.32 32.45
-1 10 -3 183.95 38.84
-1 10 -2 43.74 24.58
-1 10 -2 37.82 21.93
-1 10 -1 9.25 20.6
-1 10 -1 -15.53 19.35
-1 10 0 572.45 64.47
-1 10 0 465.54 69.39
-1 10 1 201.89 48.76
-1 10 1 285.45 47.66
-1 10 2 307.82 47.12
-1 10 2 316.95 56.07
-1 10 3 574.36 63
-1 10 3 533.52 77.59
-1 10 4 162.94 27.26
-1 10 4 205.96 52.59
-1 10 5 162.96 40.69
-1 10 5 147.86 25.43
-1 10 6 89.1 20.58
-1 10 6 26.54 25.21
-1 10 7 163.5 43.75
-1 10 7 141.55 24.85
-1 10 8 7.92 14.21
-1 10 8 16.67 20.28
-1 11 -3 428.66 58.39
-1 11 -2 82.52 35.88
-1 11 -2 60.23 32.1
-1 11 -1 186.98 40.82
-1 11 -1 142.66 43.98
-1 11 0 132.5 35.27
-1 11 0 107.31 34.17
-1 11 1 129.07 36.69
-1 11 1 116.13 33.46
-1 11 2 159.77 37.11
-1 11 2 170.51 45.49
-1 11 3 75.59 29.99
-1 11 3 -5.83 26.2
-1 11 4 224.81 31.3
-1 11 4 216.65 41.22
-1 11 4 205.84 49.74
-1 11 5 39.49 22.56
-1 11 6 208.59 56.01
-1 11 7 214.96 56.04
-1 11 8 122.73 46.16
-1 11 9 586.71 94.84
-1 11 10 44.25 26.39
-1 11 11 394.02 79.07
-1 11 12 71.5 37.83
-1 12 -2 125.61 42.36
-1 12 -2 143.88 39.64
-1 12 -1 136.93 44.18
-1 12 -1 231.52 49.63
-1 12 0 257.38 59.2
-1 12 0 231.49 45.11
-1 12 1 219.28 49.3
-1 12 1 131.11 46.55
-1 12 2 50.55 26.12
-1 12 2 16.91 28.33
-1 12 3 220.16 58.38
-1 12 3 174.89 38.22
-1 12 4 192.45 43.96
-1 12 4 153.08 50.71
-1 12 5 180.19 40.63
-1 12 5 70.48 33.58
-1 12 6 231.65 59.19
-1 12 7 194.74 61.61
-1 12 8 112.98 52.1
-1 12 9 34.44 38.18
-1 12 10 352.34 78.27
-1 12 11 37.37 21.59
-1 12 12 120.72 51.71
-1 12 13 182.9 58.8
-1 12 14 29.56 30.68
-1 12 15 308.9 79.46
-1 12 16 6.94 30.75
-1 12 17 164.53 62.79
-1 13 -2 232.56 48.61
-1 13 -1 106.6 39.07
-1 13 -1 10.19 30.26
-1 13 0 100.76 35.81
-1 13 0 75.57 36.79
-1 13 1 194.55 46.62
-1 13 1 121.82 37.98
-1 13 2 446.37 66.18
-1 13 2 349.38 67.43
-1 13 3 86.12 36.96
-1 13 3 205.74 48.74
-1 13 4 262.52 49.31
-1 13 4 195.86 58.06
-1 13 5 142.88 42.58
-1 13 5 46 32.23
-1 13 6 81.06 38.37
-1 13 6 10.91 31.03
-1 13 7 400.06 82.87
-1 13 7 364.25 60.96
-1 13 8 -4.64 26.5
-1 13 9 299.03 74.72
-1 13 10 0.23 27.67
-1 13 11 130.23 50.02
-1 13 12 39.01 37.84
-1 13 13 26.76 28.01
-1 13 14 60.72 30.93
-1 13 15 -26.68 50.02
-1 14 -1 201.36 50.57
-1 14 0 235.55 55.55
-1 14 0 87.01 36.68
-1 14 1 366.42 64.75
-1 14 1 361.13 75.56
-1 14 2 204.3 49.24
-1 14 2 91.11 51.88
-1 14 3 62.92 30.17
-1 14 3 121.95 40.78
-1 14 4 218.52 45.54
-1 14 4 300.46 73.71
-1 14 5 36.68 22.29
-1 14 5 100.31 38.92
-1 14 6 224.45 60.71
-1 14 6 304.23 58.77
-1 14 7 63.52 28.31
-1 14 7 59.14 31.98
-1 14 8 173.05 47.64
-1 14 8 142.59 48.01
-1 14 9 60.87 36.46
-1 14 10 68.92 46.33
-1 14 11 351.37 85.83
-1 14 12 56.27 41.99
-1 14 13 233.7 74.9
-1 15 -1 100 36.76
-1 15 0 212.15 53.39
-1 15 1 299.73 60.59
-1 15 2 127.19 46.72
-1 15 2 256.68 57.45
-1 15 3 214.98 54.19
-1 15 3 260.18 74.45
-1 15 4 147.73 51.01
-1 15 4 3.14 24.84
-1 15 5 296.23 71.44
-1 15 5 207.75 52.28
-1 15 6 171.35 49.12
-1 15 6 76.42 40.05
-1 15 7 170.66 40.13
-1 15 7 143.17 51.53
-1 15 8 117.54 52.03
-1 15 8 84.33 37.71
-1 15 9 47.06 26.52
-1 15 10 198.39 65.42
-1 16 4 249.68 67.13
-1 16 5 57.2 45.67
-1 16 6 -15.07 35.04
0 -16 5 -9.96 29.95
0 -15 2 42.33 25.81
0 -15 3 128.75 45.84
0 -15 4 59.37 32.09
0 -15 5 48.62 23.33
0 -15 6 139.41 42.52
0 -15 7 52.76 35.59
0 -14 -17 -65.13 43.65
0 -14 -16 78.09 44.57
0 -14 -15 10.11 28.42
0 -14 -14 142.6 52.37
0 -14 -13 112.04 50.38
0 -14 -1 90.21 34.92
0 -14 0 61.19 33.94
0 -14 1 83.66 34.36
0 -14 2 110.18 34.44
0 -14 3 106.83 32.2
0 -14 4 42.84 29.79
0 -14 5 341.53 66.08
0 -14 6 51.93 39.08
0 -14 7 235.72 55.93
0 -14 8 -19.57 23.94
0 -14 9 95.44 42.9
0 -13 -19 85.31 53.59
0 -13 -18 -25.03 40
0 -13 -17 151.86 62.23
0 -13 -16 119.78 50
0 -13 -15 155.13 55.36
0 -13 -14 313.69 68.62
0 -13 -13 68.1 38.23
0 -13 -12 223.29 57.06
0 -13 -11 -26.1 29.38
0 -13 -4 92.32 28.87
0 -13 -3 152.12 38.99
0 -13 -2 68.35 31.09
0 -13 -1 120.93 35.72
0 -13 0 406.62 63.45
0 -13 1 292.42 51.41
0 -13 2 397.39 63.42
0 -13 3 43.26 27.13
0 -13 4 138.98 39.9
0 -13 5 103.87 38.12
0 -13 6 188.54 47.17
0 -13 7 51.93 31.71
0 -13 8 98.22 37.17
0 -13 9 196.39 51.96
0 -13 10 18.89 36.58
0 -13 11 104.34 42.97
0 -12 -20 248.21 66.63
0 -12 -19 44.97 34.1
0 -12 -18 166.39 52.56
0 -12 -17 98.34 45.49
0 -12 -16 31.79 23.45
0 -12 -15 136.45 50.78
0 -12 -14 69.52 41.6
0 -12 -13 266.15 63.83
0 -12 -12 13.69 24.24
0 -12 -11 144.9 45.12
0 -12 -10 307.82 61.31
0 -12 -9 156.37 49.09
0 -12 -6 412.47 52.71
0 -12 -5 202.14 38.91
0 -12 -4 1488.46 103.28
0 -12 -3 470.17 58.83
0 -12 -2 842.67 81.1
0 -12 -1 1469.45 107.73
0 -12 0 304.76 53.28
0 -12 1 779.74 81.87
0 -12 2 7.93 17.33
0 -12 3 279.31 47.02
0 -12 3 216.95 46.51
0 -12 4 202.3 44.37
0 -12 4 180.14 38.03
0 -12 5 352.74 62.31
0 -12 5 356.87 52.54
0 -12 6 87.27 26.11
0 -12 6 76.6 24.5
0 -12 7 23.08 23.86
0 -12 8 196.33 52.13
0 -12 9 28.05 21.41
0 -12 10 122.07 43.56
0 -12 11 64.44 38.38
0 -12 12 99.81 42.7
0 -12 13 59.85 32.02
0 -11 -21 107.96 51.96
0 -11 -20 70.34 41.6
0 -11 -19 221.07 63.75
0 -11 -18 84.03 41.63
0 -11 -17 -9.02 26.06
0 -11 -16 472.12 81.05
0 -11 -15 60.73 34.91
0 -11 -14 440.18 73.29
0 -11 -13 105.27 37.53
0 -11 -12 182.69 50.05
0 -11 -11 83.24 37.31
0 -11 -10 35.71 25.02
0 -11 -9 383.94 67.07
0 -11 -8 155.41 46.85
0 -11 -6 29.04 22.62
0 -11 -5 254.83 41.4
0 -11 -4 106.66 26.69
0 -11 -3 164.87 36.17
0 -11 -2 170.13 33.78
0 -11 -1 30.92 19.78
0 -11 0 213.31 41.08
0 -11 1 120.07 32.56
0 -11 2 124.26 37.13
0 -11 2 132.07 32.95
0 -11 3 506.19 69.03
0 -11 3 496.84 58.22
0 -11 4 573.77 71.49
0 -11 4 633.37 64.74
0 -11 5 37.07 25.17
0 -11 5 36.15 18.43
0 -11 6 3.44 21.73
0 -11 6 11.76 15.99
0 -11 7 141.32 40.18
0 -11 7 149.01 34.9
0 -11 8 -2.42 19.34
0 -11 9 200.68 49.24
0 -11 10 104 40.59
0 -11 11 324.74 64.1
0 -11 12 230.01 52.36
0 -11 13 51.27 31.16
0 -11 14 134.34 45.44
0 -11 15 66.59 33.84
0 -10 -22 24.37 33.34
0 -10 -21 67.01 40.29
0 -10 -20 180.65 56.78
0 -10 -19 92.53 41.11
0 -10 -18 21.47 33.57
0 -10 -17 332.64 64.77
0 -10 -16 66.17 38.93
0 -10 -15 560.59 82.11
0 -10 -14 23.01 20.5
0 -10 -13 265.86 53.84
0 -10 -12 357.12 64.31
0 -10 -11 192.1 46.06
0 -10 -10 931.7 97.76
0 -10 -9 152.25 44.97
0 -10 -8 191.56 43.94
0 -10 -7 142.13 36.06
0 -10 -6 245.76 36.25
0 -10 -6 321.12 55.42
0 -10 -5 288.5 39.66
0 -10 -4 418.79 49.56
0 -10 -3 307.74 43.1
0 -10 -2 34.08 21.25
0 -10 -1 276.01 43.04
0 -10 0 582.82 61.96
0 -10 1 159.81 31.86
0 -10 1 140.65 35.96
0 -10 2 478.47 59.17
0 -10 2 524.39 55.24
0 -10 3 106.11 29.37
0 -10 3 119.63 27.86
0 -10 4 108.41 27.18
0 -10 4 149.54 39.19
0 -10 5 90.47 32.08
0 -10 5 172.25 35.92
0 -10 6 719.59 65.92
0 -10 6 708.59 78.16
0 -10 7 442.01 51.11
0 -10 7 429.68 62.43
0 -10 8 556.45 71.94
0 -10 8 460.06 52.98
0 -10 9 462.53 67.45
0 -10 9 423.49 51.14
0 -10 10 7.35 23.98
0 -10 11 533.63 75.78
0 -10 12 -32.89 29.83
0 -10 13 476.52 74.28
0 -10 14 -4.25 26.69
0 -10 15 102.55 42.36
0 -10 16 93.09 40.8
0 -9 -23 59.07 32.82
0 -9 -22 127.82 48.35
0 -9 -21 -6.01 32.5
0 -9 -20 135.52 46.09
0 -9 -19 11.47 22.21
0 -9 -18 189.17 51.43
0 -9 -17 -44.7 34.43
0 -9 -16 460.75 78.01
0 -9 -15 315.22 62.02
0 -9 -14 248.98 54.56
0 -9 -13 1760.41 134.19
0 -9 -12 -23.14 24.31
0 -9 -11 37.63 21.18
0 -9 -10 1097.26 99.87
0 -9 -9 151.51 40.36
0 -9 -8 230.1 48.15
0 -9 -7 183.24 42.65
0 -9 -6 851.02 83.13
0 -9 -6 723.85 58.26
0 -9 -5 109.55 23.09
0 -9 -5 199.19 46
0 -9 -4 526.65 51.77
0 -9 -3 262.59 37.93
0 -9 -2 337.73 44.86
0 -9 -1 70.84 23.31
0 -9 0 296.04 40.76
0 -9 0 401.14 50.64
0 -9 1 549.73 55.03
0 -9 1 505.34 55.43
0 -9 2 30.94 24.78
0 -9 2 39.44 19
0 -9 3 754.76 70.74
0 -9 3 800.19 65.1
0 -9 4 68.58 27.57
0 -9 4 48 19.64
0 -9 5 387.16 54.71
0 -9 5 348.14 42.97
0 -9 6 53.89 28.29
0 -9 6 62.93 20.53
0 -9 7 583.65 56.41
0 -9 7 610.71 71.51
0 -9 8 0.2 17.95
0 -9 8 7.03 10.95
0 -9 9 50.37 21.6
0 -9 9 16.09 20.55
0 -9 10 1388.08 113.65
0 -9 10 1326.62 86.41
0 -9 11 12.86 20.76
0 -9 11 -16.3 13.52
0 -9 12 271.49 53.84
0 -9 13 223.9 52.87
0 -9 14 138.49 43.59
0 -9 15 88.37 35.3
0 -9 16 9.71 21.68
0 -9 17 240.84 58.34
0 -9 18 -28.35 24.08
0 -8 -24 -13.31 24.16
0 -8 -23 88.19 45.34
0 -8 -22 49.06 35.91
0 -8 -21 157.13 47.09
0 -8 -20 -7.37 27.73
0 -8 -19 278.33 60.5
0 -8 -18 28.29 26.29
0 -8 -17 58.8 31.47
0 -8 -16 90.46 34.07
0 -8 -15 87.21 32.04
0 -8 -14 491.02 68.91
0 -8 -13 1.74 17.41
0 -8 -12 950.48 91.8
0 -8 -11 40.8 27.68
0 -8 -10 351.29 53.36
0 -8 -9 596.84 68.51
0 -8 -8 60.57 25.96
0 -8 -7 1306.86 98.73
0 -8 -6 -7.28 13.69
0 -8 -6 4.49 14.63
0 -8 -5 1330.72 76.41
0 -8 -5 1412.94 100.11
0 -8 -4 314.99 39.13
0 -8 -4 354.32 51.47
0 -8 -3 541.86 49.66
0 -8 -2 1054.47 70.15
0 -8 -1 332.09 40.12
0 -8 -1 318.53 40.62
0 -8 0 1095.2 74.52
0 -8 0 1195.53 76.5
0 -8 1 9.93 20.89
0 -8 1 15.62 16.69
0 -8 2 1122.06 73.52
0 -8 2 1219.56 82.23
0 -8 3 299.45 39.37
0 -8 3 322.85 45.63
0 -8 4 668.65 64.79
0 -8 4 674.55 56.3
0 -8 5 282.33 41.75
0 -8 5 326.27 38.93
0 -8 6 114.82 29.48
0 -8 6 180.99 30.1
0 -8 7 341.08 40.03
0 -8 7 341.74 49.84
0 -8 8 239.63 34.89
0 -8 8 227.6 44.59
0 -8 9 736.8 75.69
0 -8 9 643.04 57.38
0 -8 10 160.82 38.16
0 -8 10 140.63 28.46
0 -8 11 224.22 34.32
0 -8 11 227.78 45.17
0 -8 12 86.24 32.28
0 -8 13 -28.47 29.7
0 -8 14 176.98 45.68
0 -8 15 1.36 18.71
0 -8 16 319.41 63.49
0 -8 17 81.45 35.8
0 -8 18 123.67 42.35
0 -8 19 20.79 24.87
0 -7 -24 179.09 54.7
0 -7 -23 26.01 34.74
0 -7 -22 125.72 44.37
0 -7 -21 28.15 26.99
0 -7 -20 53.18 32.73
0 -7 -19 230.47 53.72
0 -7 -18 77.82 29.81
0 -7 -17 550.02 75.35
0 -7 -16 64.19 35.07
0 -7 -15 1813.55 128.82
0 -7 -14 -6.56 22.57
0 -7 -13 54.74 23.55
0 -7 -12 677.54 74.15
0 -7 -11 76 29.31
0 -7 -10 1179.1 92.01
0 -7 -9 677.68 68.7
0 -7 -8 884.66 77.9
0 -7 -7 21.79 17.37
0 -7 -6 1842.66 110.23
0 -7 -5 363.51 37.86
0 -7 -5 457.37 55.15
0 -7 -4 1989.53 112.16
0 -7 -4 1915.45 87.21
0 -7 -3 1515.22 97.7
0 -7 -3 1476.04 76.44
0 -7 -2 808.71 56.91
0 -7 -1 460.34 44.39
0 -7 -1 493.86 47.68
0 -7 0 1277.93 76.05
0 -7 0 1214.52 73.1
0 -7 1 2574.22 107.05
0 -7 1 2517.27 110.74
0 -7 2 1248.76 79.76
0 -7 2 1363.95 75.85
0 -7 3 303.66 40.13
0 -7 3 325.4 37.71
0 -7 4 1807.98 87.73
0 -7 4 1916.14 103.63
0 -7 5 48.26 19.34
0 -7 5 43.1 16.45
0 -7 6 785.16 69.41
0 -7 6 862.57 60.07
0 -7 7 412.75 43.48
0 -7 7 364.07 50.54
0 -7 8 1337.43 96.66
0 -7 8 1254.24 74.46
0 -7 9 103.28 31.64
0 -7 10 311.38 48.8
0 -7 11 576.93 70.08
0 -7 12 60.12 29.61
0 -7 13 1544.94 120.08
0 -7 14 -4.69 22.83
0 -7 15 221.08 47.71
0 -7 16 59.3 27.17
0 -7 17 258.6 53.89
0 -7 18 87.31 37.63
0 -7 19 32.38 24.49
0 -7 20 35.75 26.43
0 -6 -25 137.55 54.55
0 -6 -24 28.8 32.99
0 -6 -23 115.74 43.53
0 -6 -22 62.22 31.75
0 -6 -21 247.24 56.69
0 -6 -20 369.45 67.5
0 -6 -19 71.13 35.95
0 -6 -18 919.41 99.76
0 -6 -17 2.17 22.75
0 -6 -16 421.49 64.09
0 -6 -15 343.63 53.95
0 -6 -14 414.89 58.59
0 -6 -13 906.04 83.63
0 -6 -12 625.97 69.08
0 -6 -11 1123.35 87.23
0 -6 -10 556.83 60.25
0 -6 -9 293.42 44.81
0 -6 -8 231.4 38.84
0 -6 -7 707.82 62.68
0 -6 -6 50.03 20.13
0 -6 -5 1208.8 79.74
0 -6 -5 1080.13 59.02
0 -6 -4 284.71 30.2
0 -6 -4 327.64 42.58
0 -6 -3 277.87 31.05
0 -6 -3 326.59 45.4
0 -6 -2 2178.39 88.38
0 -6 -1 421.98 40.37
0 -6 -1 442.49 40.46
0 -6 0 1115.76 64.75
0 -6 0 1111.24 63.45
0 -6 1 1206.56 70.23
0 -6 1 1244.18 66.92
0 -6 2 120.73 20.94
0 -6 2 158.23 26.7
0 -6 3 608.6 52.46
0 -6 3 612.61 46.14
0 -6 4 456.09 48.96
0 -6 4 435.35 39.04
0 -6 5 666.86 48.94
0 -6 5 659.72 57.79
0 -6 6 -9.44 14.53
0 -6 6 13.14 10.59
0 -6 7 21 9.72
0 -6 7 52.55 20.85
0 -6 8 1243.96 87.21
0 -6 9 40.07 20.51
0 -6 10 1878.92 114.69
0 -6 11 0.06 18.16
0 -6 12 1009.34 89.02
0 -6 13 11.52 17.76
0 -6 14 156.91 41.5
0 -6 15 224.52 44.95
0 -6 16 413.29 64.45
0 -6 17 713.41 86.98
0 -6 18 0.6 20.15
0 -6 19 280.54 57.76
0 -6 20 51.01 31.95
0 -6 21 60.83 31.97
0 -6 22 28.39 24.5
0 -5 -25 -19.93 36.38
0 -5 -24 105.04 46.79
0 -5 -23 16.17 24.39
0 -5 -22 174.24 51.43
0 -5 -21 67.91 32.74
0 -5 -20 44.53 30.07
0 -5 -19 111.2 32.49
0 -5 -18 173.09 46.72
0 -5 -17 453.21 66.13
0 -5 -16 114.02 33.9
0 -5 -15 567.91 68.39
0 -5 -14 313.74 49.45
0 -5 -13 190.84 35.47
0 -5 -12 1347.27 94.34
0 -5 -11 44.15 23.29
0 -5 -10 218.48 36.22
0 -5 -9 1070.36 76.49
0 -5 -8 1540.98 89.09
0 -5 -7 756.67 61.7
0 -5 -7 704.56 44.97
0 -5 -6 517.2 50.96
0 -5 -5 4352.71 148.19
0 -5 -4 45.98 20.37
0 -5 -4 43.27 15.66
0 -5 -3 1067.61 69.79
0 -5 -3 972.8 52
0 -5 -2 339.96 31.22
0 -5 -2 394.8 42.98
0 -5 -1 254.31 28.58
0 -5 -1 223.31 28.09
0 -5 0 92.6 18.36
0 -5 0 124.01 20.59
0 -5 1 29.6 13.11
0 -5 1 23.15 12.48
0 -5 2 3236.22 104.28
0 -5 2 3247.88 114.02
0 -5 3 153.06 27.31
0 -5 3 143.26 29.55
0 -5 3 138.24 23.46
0 -5 4 2115.47 83.13
0 -5 4 2245.54 98.61
0 -5 4 2167.15 91.52
0 -5 5 1187.82 66.5
0 -5 5 1190.75 74.3
0 -5 6 546.2 51.69
0 -5 6 561.09 45
0 -5 7 776.16 53.35
0 -5 7 698.65 60.9
0 -5 8 459.94 43.08
0 -5 8 510.8 53.86
0 -5 9 271.56 40.34
0 -5 10 95.73 30.02
0 -5 11 952.11 79.88
0 -5 12 108.65 31.49
0 -5 13 -9.17 16.9
0 -5 14 862.14 83.23
0 -5 15 137.56 36
0 -5 16 143.22 39.24
0 -5 17 -8.42 18.82
0 -5 18 -7.28 23.83
0 -5 19 256.14 54.59
0 -5 20 52.34 33.11
0 -5 21 105.75 38.92
0 -5 22 0.93 32.09
0 -5 23 112.9 46.72
0 -4 -25 -13.65 24.47
0 -4 -24 181.72 55.09
0 -4 -23 22.64 29.63
0 -4 -22 199.1 55.63
0 -4 -21 -8.74 21.22
0 -4 -20 290.58 61.53
0 -4 -19 -14.22 21.2
0 -4 -18 107.53 37.13
0 -4 -17 245.59 51.11
0 -4 -16 53.24 26.08
0 -4 -15 611.47 68.53
0 -4 -14 -15.54 19.16
0 -4 -13 136.67 30.55
0 -4 -12 136.18 30.22
0 -4 -11 401.63 48.82
0 -4 -10 1063.7 74.47
0 -4 -9 832.04 62.85
0 -4 -8 1935.46 93.79
0 -4 -8 1683.74 75.49
0 -4 -7 41.46 19.27
0 -4 -7 31.23 13.73
0 -4 -6 19.18 10.97
0 -4 -6 -3.45 14.02
0 -4 -5 6112.69 134.43
0 -4 -5 6265.31 167.06
0 -4 -4 3192.58 111.21
0 -4 -3 243.86 24.28
0 -4 -3 266.36 30.86
0 -4 -2 2243.28 73.32
0 -4 -2 2343.43 92.99
0 -4 -1 3282.71 97.46
0 -4 -1 3227.57 91.92
0 -4 0 75.51 13.8
0 -4 0 74.75 14.09
0 -4 1 1908.92 69.26
0 -4 1 2007.99 75.21
0 -4 2 1583.55 70.87
0 -4 2 1679.53 71.34
0 -4 2 1704.51 64.19
0 -4 3 5139.18 125.31
0 -4 3 5247.49 141.58
0 -4 3 5101.53 135.36
0 -4 4 1030.43 60.39
0 -4 4 964.56 53.48
0 -4 5 1131.52 66.55
0 -4 5 1191.1 60.99
0 -4 6 864.66 60.82
0 -4 7 -3.35 12.4
0 -4 8 2900.7 122.09
0 -4 9 70.81 22.33
0 -4 10 399.49 47.26
0 -4 11 65.92 23.96
0 -4 12 61.41 23.4
0 -4 13 335.87 48.04
0 -4 14 43.87 21.29
0 -4 15 191.74 40.86
0 -4 16 41.88 25.03
0 -4 17 95.23 31
0 -4 18 325.74 57.74
0 -4 19 123.46 39.85
0 -4 20 79.99 33.73
0 -4 21 -9.39 27.03
0 -4 22 199.53 48.15
0 -4 23 2.77 22.89
0 -4 24 76.66 37.26
0 -3 -25 101.77 42.01
0 -3 -24 26.32 28.43
0 -3 -23 336.03 68.72
0 -3 -22 59.21 37.16
0 -3 -21 323.13 65.88
0 -3 -20 322.7 61.89
0 -3 -19 -17.08 18.34
0 -3 -18 253.71 52.84
0 -3 -17 179.1 42.66
0 -3 -16 482.01 65.16
0 -3 -15 21.48 16.34
0 -3 -14 1559.76 105.63
0 -3 -13 466.21 56.1
0 -3 -12 419.55 49.54
0 -3 -11 721.12 63.71
0 -3 -10 41.4 20.71
0 -3 -9 116.44 25.74
0 -3 -8 393.82 35.79
0 -3 -8 484.28 46.38
0 -3 -7 2218.55 92.85
0 -3 -7 2160.67 79.82
0 -3 -6 3214.62 93.92
0 -3 -6 3302.48 110.07
0 -3 -5 4427.22 107.12
0 -3 -5 4531.7 127.9
0 -3 -4 151.47 22.28
0 -3 -4 137.53 16.1
0 -3 -3 31.2 12.28
0 -3 -3 23.29 8.96
0 -3 -2 1875.58 59.02
0 -3 -2 1963.99 75.17
0 -3 -1 292.41 24.69
0 -3 -1 270.4 22.29
0 -3 -1 276.82 28.7
0 -3 0 5033.27 113.75
0 -3 0 5008.91 113.08
0 -3 1 19.96 8.94
0 -3 1 33.95 10.41
0 -3 1 19.81 10.17
0 -3 2 185.32 19.92
0 -3 2 162.37 19.89
0 -3 2 153.19 17.12
0 -3 2 142.93 19.19
0 -3 3 1140.15 52
0 -3 3 1024.54 49.18
0 -3 3 1007.71 52.42
0 -3 4 103.21 19.08
0 -3 4 120.97 22.73
0 -3 5 8288.16 189.87
0 -3 6 1049.67 62.18
0 -3 7 180.16 28.98
0 -3 8 20.11 14.92
0 -3 9 528.71 50.63
0 -3 10 308.02 39.89
0 -3 11 347.11 42.15
0 -3 12 1838.12 103.74
0 -3 13 36.3 22.11
0 -3 14 653.87 67.01
0 -3 15 151 36.27
0 -3 16 48.38 22.78
0 -3 17 194.22 41.93
0 -3 18 278.67 52.52
0 -3 19 140.07 38.57
0 -3 20 22.68 22.22
0 -3 21 227.83 53
0 -3 22 23.86 25.22
0 -3 23 60.03 36.45
0 -3 24 163.12 49.11
0 -2 -25 25.77 34.34
0 -2 -24 18.69 25.17
0 -2 -23 33.64 37.86
0 -2 -22 44.6 36.91
0 -2 -21 70.48 40.67
0 -2 -20 35.44 29.17
0 -2 -19 85.98 34.92
0 -2 -18 9.76 20.74
0 -2 -17 431.81 63.5
0 -2 -16 -39.76 23.3
0 -2 -15 361.27 53.87
0 -2 -14 496.08 60.59
0 -2 -13 836.97 74.75
0 -2 -12 900.38 72.46
0 -2 -11 13.04 12.95
0 -2 -10 5041.1 163.87
0 -2 -9 97.89 24.05
0 -2 -8 2223.28 87.06
0 -2 -8 2372.75 96.89
0 -2 -7 587.51 40.03
0 -2 -7 626.05 45.85
0 -2 -6 3900.79 115.13
0 -2 -6 4008.92 104.96
0 -2 -5 131.74 19.14
0 -2 -5 136.41 16.33
0 -2 -4 1051.09 48.66
0 -2 -4 1080.81 41.45
0 -2 -3 1089.22 46.31
0 -2 -3 994.22 36.23
0 -2 -2 10.9 7.55
0 -2 -2 8.03 6.19
0 -2 -1 4127.94 88.6
0 -2 -1 4113.97 97.06
0 -2 1 66.69 11.87
0 -2 1 69.83 10.5
0 -2 1 72.84 10.06
0 -2 1 78.18 12.53
0 -2 2 1885.95 57.34
0 -2 2 1976.89 57.2
0 -2 2 1743.22 58.75
0 -2 3 1883.7 64.37
0 -2 4 119.91 18.04
0 -2 5 3522.42 103.56
0 -2 6 968.08 54.25
0 -2 7 1870.26 81.1
0 -2 8 332.4 35.38
0 -2 9 3951.93 133.24
0 -2 10 419.82 44.92
0 -2 11 1641 90.28
0 -2 12 226.05 34.93
0 -2 13 371.7 45.52
0 -2 14 249.35 40.86
0 -2 15 61.19 23.87
0 -2 16 571.94 63.01
0 -2 17 52.56 23.12
0 -2 18 45.06 25.96
0 -2 19 163.01 39.28
0 -2 20 56.76 28.35
0 -2 21 -6.01 18.57
0 -2 22 42.45 26.56
0 -2 23 20.13 23.66
0 -2 24 4.92 23.34
0 -2 25 95.88 45.75
0 -1 -25 124.2 51.05
0 -1 -24 5.01 27.44
0 -1 -23 69.38 38.66
0 -1 -22 128.49 48.41
0 -1 -21 115.25 44.83
0 -1 -7 1110.13 56.21
0 -1 -6 1747.08 66.46
0 -1 -5 297.68 24.28
0 -1 -4 670.99 36.48
0 -1 -4 666.9 32.18
0 -1 -3 542.18 28.57
0 -1 3 1239.31 44.94
0 -1 4 39.75 10.32
0 -1 5 1343.39 56.02
0 -1 6 1992.94 73.8
0 -1 7 14.63 10.53
0 -1 8 818.77 52.82
0 -1 9 508.52 44.31
0 -1 10 558.13 48.65
0 -1 11 14.1 14.05
0 -1 12 912.9 66.59
0 -1 13 475.82 50.93
0 -1 14 286.6 42.67
0 -1 15 597.44 61.48
0 -1 16 -19.58 20.99
0 -1 17 293.03 47.74
0 -1 18 143.52 34.93
0 -1 19 448.56 62.93
0 -1 20 146.73 40.74
0 -1 21 50.74 28.88
0 -1 22 242.28 52.05
0 -1 23 38.58 23.44
0 -1 24 329.8 65.34
0 -1 25 30 22.63
0 -1 26 55.96 31.04
0 0 -25 110.14 48.71
0 0 -7 5603.97 141.98
0 0 -6 154.9 21.17
0 0 -5 2046.09 67.47
0 0 -4 25.09 9.01
0 0 4 18.35 6.98
0 0 4 40.16 10.27
0 0 5 2156.81 68.09
0 0 5 1984.84 57.7
0 0 6 214.71 24.73
0 0 6 137.55 17.69
0 0 7 5793.88 124.71
0 0 7 5538.4 139.84
0 0 8 44.73 12.51
0 0 8 63.18 17.71
0 0 9 1538.74 75.13
0 0 9 1409.96 59.74
0 0 10 310.09 29.19
0 0 10 250.05 32.93
0 0 10 215.01 29.09
0 0 11 605.58 48.99
0 0 11 553.46 49.78
0 0 11 597.4 40.78
0 0 12 188.38 29.71
0 0 12 228.21 32.77
0 0 13 476.84 48.94
0 0 14 485.05 50.51
0 0 15 273.9 40.66
0 0 16 579.21 60.74
0 0 17 627.13 65.06
0 0 18 70.64 25.9
0 0 19 306.36 51.77
0 0 20 75.68 29.55
0 0 21 151.17 39.47
0 0 22 30.05 29.68
0 0 23 226.97 51.64
0 0 24 13.31 20.11
0 0 25 53.87 31.97
0 0 26 106.38 38.69
0 1 -7 0.52 6.44
0 1 -6 1960.46 75.89
0 1 -6 1898.92 55.39
0 1 -5 1247.37 38.84
0 1 -5 1443.38 59.47
0 1 -4 46.63 11.34
0 1 -3 1245.13 45.32
0 1 -3 1206.92 44.76
0 1 4 655.82 30.82
0 1 5 312.9 23.86
0 1 6 1760.83 64.46
0 1 7 1103.42 53.84
0 1 8 624.41 42.11
0 1 8 833.42 49.64
0 1 9 133.62 20.99
0 1 9 135.22 23.1
0 1 10 891.48 59.04
0 1 11 504.2 46.81
0 1 12 96.57 24.36
0 1 13 880.2 67.58
0 1 14 150.47 29.67
0 1 14 166.09 32.45
0 1 15 561.16 57.35
0 1 15 583.54 56.66
0 1 16 414.39 50.56
0 1 17 100.23 28.61
0 1 18 299.42 45.38
0 1 19 10.83 17.14
0 1 20 424.89 58.68
0 1 21 156.71 39.83
0 1 22 94.22 32.63
0 1 23 37.17 28.06
0 1 24 45.92 30.2
0 1 25 207.97 51.65
0 2 -10 316.71 26.41
0 2 -9 4121.61 100.4
0 2 -8 306.89 23.09
0 2 -5 3502.52 103.72
0 2 -5 3451.94 104
0 2 -4 114.55 16.43
0 2 -3 1858.84 63.45
0 2 -2 1790.37 58.21
0 2 -1 71.87 13.11
0 2 -1 57.13 10.2
0 2 -1 73.59 11.03
0 2 0 1604.4 55.95
0 2 1 4106.24 88.75
0 2 1 4049.74 96.21
0 2 2 5.37 6.22
0 2 2 7.87 5.94
0 2 2 9.54 5.97
0 2 2 -2.24 5.86
0 2 3 1090.32 37.32
0 2 3 1038.67 45.87
0 2 4 996.79 39.29
0 2 4 1028.87 48.92
0 2 5 129.48 15.69
0 2 5 127.66 18.76
0 2 6 3831.08 100.08
0 2 7 566.33 37.39
0 2 8 2349.73 84.77
0 2 9 74.77 18.02
0 2 10 5077.83 147.1
0 2 11 17.78 12.41
0 2 12 959.45 65.95
0 2 13 748.27 60.96
0 2 14 427.82 48.36
0 2 15 356.96 46.31
0 2 16 -3.86 15.88
0 2 16 -65.02 22.88
0 2 17 368.03 51.22
0 2 17 444.5 52.79
0 2 18 4.19 13.75
0 2 19 49.59 24.31
0 2 20 45.81 22.65
0 2 21 58.41 26.23
0 2 22 -36.16 22.72
0 2 23 -19.12 25.49
0 2 24 40.37 28.47
0 3 -12 1807.39 67.43
0 3 -11 294.37 26.04
0 3 -10 348.91 26.61
0 3 -4 92.84 10.44
0 3 -4 111.32 21.19
0 3 -3 1005.53 52.28
0 3 -2 177.45 21.62
0 3 -2 162.66 20.25
0 3 -2 152.33 19.03
0 3 -1 17.2 7.47
0 3 -1 27.91 11.58
0 3 -1 14.76 7.84
0 3 0 4760.62 110.49
0 3 0 5178.52 129.44
0 3 0 5002.92 129.76
0 3 0 4881.29 111.71
0 3 1 299.11 25.32
0 3 1 276.89 22.79
0 3 1 295.64 30.39
0 3 1 253.65 27.47
0 3 2 1899.76 58.27
0 3 2 1983.7 69.65
0 3 2 1949.39 73.88
0 3 3 16.96 9.15
0 3 3 29.22 8.58
0 3 3 18.88 9.05
0 3 3 22.52 7.07
0 3 4 143.19 15.49
0 3 4 147.61 21.03
0 3 4 136.06 15.89
0 3 5 4486.51 128.97
0 3 5 4451.45 105.92
0 3 6 3214.44 110.44
0 3 6 2971.49 89.09
0 3 7 2119.69 77.54
0 3 8 471.42 37.21
0 3 9 111.73 21.43
0 3 10 55.25 18.17
0 3 11 714.7 53.6
0 3 12 345.24 39.07
0 3 13 368.53 43.32
0 3 14 1519.56 90.17
0 3 15 29.44 16.97
0 3 16 409.81 51.38
0 3 17 167.34 36.66
0 3 18 231.04 38.25
0 3 18 288.77 45.87
0 3 19 2.59 15.13
0 3 19 -15.01 17.45
0 3 20 318.33 50.23
0 3 21 393 55.8
0 3 22 19.2 24.44
0 3 23 361.55 56.02
0 4 -13 323.29 27.44
0 4 -12 57.25 12.48
0 4 -5 1018.28 35.69
0 4 -3 5283.01 134.75
0 4 -2 1723.92 75.12
0 4 -2 1669.13 69.09
0 4 -2 1684.61 70.23
0 4 -1 1870.88 71.2
0 4 -1 1954.55 73.27
0 4 -1 1868.15 79.71
0 4 0 86.17 15.37
0 4 0 77.16 18.02
0 4 0 92.19 16.24
0 4 0 91.41 18.37
0 4 1 3301.77 91.57
0 4 1 3354.24 118.3
0 4 1 3288.94 98.6
0 4 1 3342.87 114.08
0 4 2 2285.93 72.47
0 4 2 2284.71 91.41
0 4 2 2301.95 83.34
0 4 3 241.02 22.96
0 4 3 279.9 30.26
0 4 3 293.87 30.16
0 4 3 257.72 22.26
0 4 4 3248.03 111.66
0 4 4 3351.24 90.34
0 4 4 3231.24 90.05
0 4 5 6195.57 136.48
0 4 5 6031.19 135.52
0 4 6 15 9.6
0 4 6 13.08 7.08
0 4 7 35.06 13
0 4 8 1806.74 75.82
0 4 9 745.38 49.72
0 4 10 981.22 59.71
0 4 11 439.26 42.16
0 4 12 166.19 26.79
0 4 13 140.78 26.83
0 4 14 1.72 13.34
0 4 15 557.74 57.52
0 4 16 31.59 19.69
0 4 17 253.21 43.28
0 4 18 128.23 32.42
0 4 19 -4.78 16.15
0 4 20 295.78 50.34
0 4 20 378.38 51.69
0 4 21 -3.33 15.49
0 5 -13 12.94 9.36
0 5 -6 460.67 26.11
0 5 -5 1076.04 43.96
0 5 -3 125.41 25.1
0 5 -2 3433.1 113.7
0 5 -2 3220.9 119.7
0 5 -1 31.55 16.59
0 5 -1 26.03 12.52
0 5 0 106.09 18.86
0 5 0 121.89 24.19
0 5 0 105.79 19.43
0 5 1 232.66 26.69
0 5 1 248.55 36.36
0 5 2 386.19 44.33
0 5 2 339.71 30.49
0 5 3 982.67 51.12
0 5 4 33.53 13.67
0 5 4 54.42 16.06
0 5 5 4069.17 113.54
0 5 5 4221.92 115.07
0 5 6 522.49 38.19
0 5 6 503.18 38.37
0 5 7 737.95 46.94
0 5 7 702.21 46.57
0 5 8 1439.76 68.33
0 5 8 1470.34 70.06
0 5 9 1060.15 60.14
0 5 9 1104.58 62.81
0 5 10 248.92 31.28
0 5 11 13.07 13.56
0 5 12 1264.84 75.73
0 5 13 216.61 34.42
0 5 14 328.23 41.21
0 5 15 674.22 62.85
0 5 16 119.94 28.2
0 5 17 520.14 59.7
0 5 18 149.74 35.65
0 5 19 158.69 38.08
0 5 20 23.37 20.25
0 5 21 80.45 29.4
0 5 22 135.73 36.72
0 6 -7 27.63 9.06
0 6 -6 -3.68 7.26
0 6 -4 431.06 43.21
0 6 -3 689.51 52.94
0 6 -2 170.05 30.25
0 6 -2 179.49 29.23
0 6 -1 1286.49 71.21
0 6 -1 1210.16 79.9
0 6 0 1039.14 63.97
0 6 0 1018.51 74.59
0 6 1 423.91 49.55
0 6 2 2290.8 118.69
0 6 3 289.32 30.59
0 6 3 293.99 44.45
0 6 4 295.55 29.31
0 6 4 286.16 29.79
0 6 5 1130.28 58.57
0 6 5 1209.82 60.27
0 6 6 28.55 10.69
0 6 6 47.13 14.13
0 6 7 691.56 47.12
0 6 7 667.81 47.33
0 6 8 213.87 27.21
0 6 8 172.7 24.01
0 6 9 285.58 32.51
0 6 10 544.72 46.56
0 6 11 1083.83 68.41
0 6 12 731.05 58.1
0 6 13 894.6 66.59
0 6 14 425.85 48.45
0 6 15 302.08 41.67
0 6 16 413.98 50.34
0 6 17 29.43 20.56
0 6 18 901.39 80.54
0 6 19 46 22.64
0 6 20 252.85 47.3
0 6 21 151.45 37.04
0 6 22 46.46 28.07
0 7 -7 295.83 25.17
0 7 -6 629.5 40.13
0 7 -4 1722.74 92.18
0 7 -3 363.29 42.49
0 7 -2 1287.93 78.48
0 7 -2 1355.03 91.05
0 7 -1 2471.73 125.77
0 7 -1 2707.78 114.3
0 7 0 1339.24 79.18
0 7 0 1219.13 88.28
0 7 1 469.36 55.68
0 7 2 821.13 75.76
0 7 3 1598.76 107.94
0 7 4 2115.27 128.63
0 7 4 2112.88 85.87
0 7 5 381.34 36.75
0 7 5 370.01 56.48
0 7 6 1698.35 79.62
0 7 7 22.74 12.16
0 7 8 866.89 58.5
0 7 9 618.21 49.82
0 7 10 1115.62 69.06
0 7 11 49.77 18.65
0 7 12 619.75 54.62
0 7 13 22.38 14.58
0 7 14 23.23 14.92
0 7 15 1866.48 104.54
0 7 16 8.51 15.64
0 7 17 457.54 54.93
0 7 18 75.45 25.41
0 7 19 134.46 32.59
0 7 20 114.87 35.21
0 8 -4 733.93 63.28
0 8 -3 277.35 40.18
0 8 -2 1231.73 93.48
0 8 -2 1210.05 80.99
0 8 -1 27.14 22.56
0 8 -1 63.16 26.91
0 8 0 1132.36 90.36
0 8 0 1144.92 77.59
0 8 1 511.52 52.28
0 8 1 380.43 54.39
0 8 2 1064.66 90.96
0 8 3 557.05 66.87
0 8 4 334.54 58.4
0 8 4 382.13 38.29
0 8 5 1408.79 74.72
0 8 5 1290.67 106.57
0 8 6 39.7 16.13
0 8 6 -16.85 26.16
0 8 7 1128.44 69.05
0 8 8 30.73 16.6
0 8 9 532.97 48.42
0 8 10 311.52 38.03
0 8 11 8.19 11.76
0 8 12 912.29 67.74
0 8 13 -0.72 14.33
0 8 14 444.45 50.1
0 8 15 97.17 27
0 8 16 70.46 22.41
0 8 17 118.93 31.43
0 9 -4 57.17 23.73
0 9 -3 767.41 69.5
0 9 -2 64.21 27.5
0 9 -2 32.6 24.77
0 9 -1 605.9 70.4
0 9 -1 599.28 61.88
0 9 0 438.75 52.55
0 9 0 378.01 59.45
0 9 1 104.75 28.07
0 9 1 68.22 31.58
0 9 2 258.99 47.32
0 9 3 274.79 51.11
0 9 4 540.8 71.84
0 9 4 546.59 48.27
0 9 5 161.8 30.48
0 9 5 145.71 39.36
0 9 6 798.98 60.09
0 9 6 805.92 92.82
0 9 7 239.77 34.94
0 9 7 214.56 53.2
0 9 8 197.73 52.35
0 9 8 226.59 33.34
0 9 9 80.43 36.99
0 9 9 84.24 22.87
0 9 10 983.61 69.85
0 9 11 63.5 23.35
0 9 12 23.21 15.89
0 9 13 1671.41 97.03
0 9 14 237.56 38.42
0 9 15 213.47 37.49
0 10 -4 92.33 28.1
0 10 -3 58.13 23.8
0 10 -2 431.88 63.3
0 10 -2 520.12 61.32
0 10 -1 222.2 43.02
0 10 -1 92.92 29.61
0 10 0 638.83 65.97
0 10 0 560.33 74.59
0 10 1 231.42 52.48
0 10 1 348.34 49.71
0 10 2 63.66 27.44
0 10 2 30.84 25.89
0 10 3 345.36 59.03
0 10 4 419.58 44.62
0 10 4 461.72 72.59
0 10 5 364.75 65.13
0 10 5 342.02 42.79
0 10 6 243.27 54.63
0 10 6 269.68 37.78
0 10 7 188.25 33.19
0 10 7 159.02 43.38
0 10 8 197.96 51.29
0 10 8 221.29 34.43
0 10 9 112.8 27.51
0 10 9 71.36 33.65
0 10 10 1010.92 73.05
0 10 10 1049 119.12
0 10 11 264.87 39.65
0 10 11 196.87 56.34
0 10 12 258.48 64.9
0 10 13 226.11 58.28
0 11 -4 509.84 64.03
0 11 -3 494.85 65.17
0 11 -2 157.78 36.63
0 11 -1 163.81 34.79
0 11 -1 158.35 48.99
0 11 0 257.15 56.84
0 11 0 273.95 46.35
0 11 1 37.37 22.32
0 11 1 50.57 26.61
0 11 2 192.09 49.69
0 11 2 187.68 40.56
0 11 3 155.32 35.93
0 11 3 79.84 30.97
0 11 4 120.9 28.13
0 11 4 118.47 43.05
0 11 5 252.79 55.2
0 11 5 335.92 43.78
0 11 6 52.12 20.48
0 11 6 25.7 19.71
0 11 7 805.39 101.39
0 11 7 881.12 69.56
0 11 8 127.63 41.17
0 11 8 144.4 32.29
0 11 9 266.98 61.37
0 11 10 -15.27 22.05
0 11 11 96.23 47.98
0 11 12 187.1 63.37
0 11 13 98.05 46.8
0 11 14 351.83 82.59
0 11 15 26.43 41.95
0 11 16 375.78 86.48
0 11 17 -121.36 52.88
0 11 18 82.31 41.48
0 11 19 208.05 74.47
0 11 20 28.21 38.29
0 12 -3 181.44 43.65
0 12 -2 75.33 30.23
0 12 -1 857.26 86.23
0 12 -1 767.3 97.76
0 12 0 562.35 74.56
0 12 0 314.16 61.85
0 12 1 1701 142.96
0 12 1 1713.11 122.11
0 12 2 1137.53 99.59
0 12 2 948.47 111.04
0 12 3 563.6 87.66
0 12 3 878.68 87.58
0 12 4 1580.12 144.24
0 12 4 1611.77 98.06
0 12 4 1634.14 118.68
0 12 5 272.36 68.46
0 12 6 416.41 75.27
0 12 7 127.23 44.05
0 12 8 331.51 73.19
0 12 9 132.94 51.15
0 12 10 261.08 66.33
0 12 11 203.76 66.69
0 12 12 44.71 40.91
0 12 13 256 75.77
0 12 14 -57.43 48.46
0 12 15 101.8 52.26
0 12 16 116.04 54.64
0 12 17 102.1 56.46
0 12 18 87.49 55.72
0 13 -3 64.57 29.01
0 13 -2 450.42 66.51
0 13 -1 387.21 64.07
0 13 0 605.57 77.4
0 13 0 493.09 81.34
0 13 1 229.64 50.93
0 13 1 89.51 30.88
0 13 2 36.33 26.75
0 13 2 62.2 37.67
0 13 3 135.66 45.61
0 13 3 165.39 44.12
0 13 4 110 45.01
0 13 4 150.2 40.21
0 13 5 489.73 85.86
0 13 5 613.08 77
0 13 6 200.96 65.12
0 13 7 518.78 92.05
0 13 8 75.91 31.32
0 13 9 -17.38 34.87
0 13 10 237.33 67.65
0 13 11 -21.51 30.94
0 13 12 399.71 84.81
0 13 13 22.79 34.11
0 13 14 238.58 68.88
0 13 15 -17.05 37.08
0 13 16 58.84 50.32
0 14 -2 133.11 41.43
0 14 -1 112.61 38.45
0 14 0 79.82 37.38
0 14 1 222.22 54.34
0 14 1 54.87 31.03
0 14 2 790.92 93.55
0 14 2 665.74 100.12
0 14 3 138.87 47.49
0 14 3 205.23 50.36
0 14 4 302.67 56.21
0 14 4 254.95 70.19
0 14 5 49.21 39.9
0 14 5 73.66 31.9
0 14 6 42.67 29.92
0 14 6 9.16 29.93
0 14 7 144 50.52
0 14 7 184.72 47.89
0 14 8 44.28 35.48
0 14 9 229.26 67.11
0 14 10 59.21 28.78
0 14 11 243.05 66.65
0 14 12 156.85 63.69
0 14 13 15.65 27.63
0 15 -2 71.34 37.42
0 15 -1 240.82 55.08
0 15 0 157.24 47.07
0 15 1 225.26 68.09
0 15 1 384.25 67.34
0 15 2 197.94 50.69
0 15 2 69.66 39.11
0 15 3 102.94 45.74
0 15 3 181.29 46.97
0 15 4 216.72 62.08
0 15 4 385.08 68.06
0 15 5 94.01 50.47
0 15 5 238.47 58.95
0 15 6 231.75 71.77
0 15 6 240.5 56.32
0 15 7 47.76 35.54
0 15 7 48.22 31.94
0 15 8 153.78 45.4
0 15 8 158.73 58.12
0 15 9 12.34 27.76
0 15 10 132.82 53.23
0 16 3 137.6 49.24
0 16 4 49.81 37.63
0 16 5 227.25 66.21
0 16 6 14.72 26.45
0 16 7 150.96 58.31
1 -15 4 190.67 51.42
1 -15 5 3.68 25.55
1 -15 6 100.88 35.72
1 -15 7 37.23 32.35
1 -14 -15 71.27 40.45
1 -14 -14 91.99 46.67
1 -14 -13 326.25 73.49
1 -14 1 114.6 38.63
1 -14 2 2.91 19.24
1 -14 3 268.67 55.86
1 -14 4 50.8 36.03
1 -14 5 143.41 45.22
1 -14 6 174.12 47.4
1 -14 7 47.21 36.87
1 -14 8 217.01 55.68
1 -14 9 8.93 29.27
1 -13 -17 15.47 25.16
1 -13 -16 169.07 53.21
1 -13 -15 -6.42 31.54
1 -13 -14 209.62 59.58
1 -13 -13 32.69 35.53
1 -13 -12 68.32 33.33
1 -13 -11 141.95 45.6
1 -13 -1 147.07 35.46
1 -13 0 39.41 25.64
1 -13 1 47.42 25.63
1 -13 2 248.38 50.39
1 -13 2 203.46 43.75
1 -13 3 98.99 35.79
1 -13 3 202.23 42.81
1 -13 4 186.93 42.58
1 -13 4 135.87 37.63
1 -13 5 66.67 31.15
1 -13 5 85.45 29.58
1 -13 6 74.22 31.64
1 -13 7 63.99 33.84
1 -13 8 55.27 27.25
1 -13 9 51.04 33.55
1 -13 10 90.86 35.33
1 -13 11 38.28 24.81
1 -12 -19 -4.72 24.77
1 -12 -18 -11.32 24.62
1 -12 -17 251.2 66.76
1 -12 -16 43.41 31.94
1 -12 -15 397.67 80.4
1 -12 -14 100.07 44.42
1 -12 -13 187.57 56.78
1 -12 -12 183.52 53.99
1 -12 -11 113.06 45.22
1 -12 -10 335.58 66.77
1 -12 -9 23.35 31.21
1 -12 -4 112.89 35.24
1 -12 -3 168.86 35.31
1 -12 -2 5.58 19.76
1 -12 -1 201.94 41.83
1 -12 0 213.92 42.06
1 -12 1 132.16 32.28
1 -12 1 190.07 42.94
1 -12 2 153.98 42.33
1 -12 2 157.39 38.1
1 -12 3 84.07 31.62
1 -12 3 74.84 33.84
1 -12 4 170.24 45.17
1 -12 4 179.75 40.85
1 -12 5 36.65 24.12
1 -12 5 4.53 15.47
1 -12 6 247.59 44.38
1 -12 6 390.96 62.63
1 -12 7 28.84 23.66
1 -12 7 11.12 20.71
1 -12 8 127.57 39.63
1 -12 9 100.81 38.9
1 -12 10 174.05 47.46
1 -12 11 193.52 53.15
1 -12 12 46.74 31.48
1 -12 13 244.96 60.88
1 -11 -20 51.72 38.84
1 -11 -19 12.13 29.67
1 -11 -18 518.79 90.26
1 -11 -17 -36.97 34.42
1 -11 -16 371.74 76.03
1 -11 -15 171.55 54.71
1 -11 -14 131.82 45.8
1 -11 -13 352.73 66.72
1 -11 -12 32.01 20.83
1 -11 -11 415.94 69.58
1 -11 -10 45.85 29.36
1 -11 -9 723.27 92.27
1 -11 -8 247.91 55.67
1 -11 -7 278.03 59.48
1 -11 -6 223.06 35.24
1 -11 -5 4.43 12.81
1 -11 -4 218.85 39.2
1 -11 -3 5.44 15.77
1 -11 -2 214.19 39.76
1 -11 -1 94.98 31.59
1 -11 -1 145.93 36.1
1 -11 0 109.13 31.71
1 -11 0 97.26 23.21
1 -11 1 158.42 34.64
1 -11 1 150.15 38.85
1 -11 2 48.43 20.94
1 -11 2 25.36 23.67
1 -11 3 357.39 51.02
1 -11 3 375.19 57.79
1 -11 4 103.93 31.83
1 -11 4 74.35 34.36
1 -11 5 683.67 71.59
1 -11 5 656.01 76
1 -11 6 158.01 37.92
1 -11 6 163.15 42.26
1 -11 7 222.83 47.87
1 -11 7 189.37 40.31
1 -11 8 237.22 53.68
1 -11 8 278.1 46.97
1 -11 9 -4.97 24.91
1 -11 9 21.94 22.77
1 -11 10 229.37 53.08
1 -11 11 3.92 23.64
1 -11 12 294.51 61.58
1 -11 13 244.97 59.89
1 -11 14 183.46 48.45
1 -11 15 58.86 36.32
1 -10 -22 24.57 34.22
1 -10 -21 154.64 54.95
1 -10 -20 -13.3 22.26
1 -10 -19 327.06 71.18
1 -10 -18 9.82 30.53
1 -10 -17 0.99 22.47
1 -10 -16 235.65 58.88
1 -10 -15 32.09 33.74
1 -10 -14 535.28 82.78
1 -10 -13 0.58 25.27
1 -10 -12 341.18 61.99
1 -10 -11 188.74 51.83
1 -10 -10 33.2 28.69
1 -10 -9 208.07 48.23
1 -10 -8 -3.56 18.45
1 -10 -7 179.37 44.35
1 -10 -6 32.04 14.15
1 -10 -6 68.77 31.25
1 -10 -5 107.36 25.96
1 -10 -4 150.24 29.77
1 -10 -3 490.36 52.51
1 -10 -2 260.32 40.18
1 -10 -2 327.04 49.53
1 -10 -1 158.18 35.42
1 -10 -1 145.47 31.33
1 -10 0 494.57 58.72
1 -10 0 468.17 55.41
1 -10 1 3.59 13.3
1 -10 1 31.34 17.26
1 -10 2 16.21 14.34
1 -10 2 59.12 25.97
1 -10 3 196.53 41.2
1 -10 3 214.29 40.5
1 -10 4 243.75 41.18
1 -10 4 219.24 44.68
1 -10 5 42.61 20.79
1 -10 5 47.7 20.74
1 -10 6 81.87 23.25
1 -10 6 70.08 27.23
1 -10 7 75.21 33.13
1 -10 7 40.22 18.2
1 -10 8 39.35 21.18
1 -10 8 10.4 19.71
1 -10 9 347.29 50.53
1 -10 9 268.9 53.19
1 -10 10 4.82 16.17
1 -10 10 -37 28
1 -10 11 340.25 61.2
1 -10 12 41.51 29.29
1 -10 13 31.64 25.01
1 -10 14 84.82 34.3
1 -10 15 6.75 25.53
1 -10 16 186.31 55.37
1 -9 -22 66.98 44.34
1 -9 -21 42.16 35.83
1 -9 -20 127.51 46.27
1 -9 -19 66.5 36.61
1 -9 -18 137.48 49.06
1 -9 -17 342.08 68.57
1 -9 -16 0.31 22.58
1 -9 -15 369.92 66.47
1 -9 -14 95.63 37
1 -9 -13 22.8 22.28
1 -9 -12 3.09 19.7
1 -9 -11 170.11 44.66
1 -9 -10 141.91 38.62
1 -9 -9 241.81 51.94
1 -9 -8 244.58 47.77
1 -9 -7 115.17 36.36
1 -9 -6 941.73 63.02
1 -9 -6 1027.85 93.59
1 -9 -5 124.05 27.09
1 -9 -5 127.04 41.62
1 -9 -4 1141.37 72.72
1 -9 -3 682.8 57.63
1 -9 -2 199.07 33.26
1 -9 -2 209.51 39.12
1 -9 -1 1311.59 84.36
1 -9 -1 1475.73 96.2
1 -9 0 222.11 36.25
1 -9 0 231.22 39.12
1 -9 1 950.51 74.72
1 -9 1 1094.45 81.12
1 -9 2 763.78 68.6
1 -9 2 686.83 64.45
1 -9 3 114.16 28.39
1 -9 3 117.92 28.79
1 -9 4 395.18 52.31
1 -9 4 383.14 47.34
1 -9 5 61.14 25.08
1 -9 5 47.81 18.37
1 -9 6 502.91 55.47
1 -9 6 533.12 62.96
1 -9 7 180.53 34.03
1 -9 7 168.91 38.14
1 -9 8 220.71 44.62
1 -9 8 261.95 41.99
1 -9 9 1.7 20.29
1 -9 9 23.77 18.53
1 -9 10 74.82 26.04
1 -9 10 95.75 35.64
1 -9 11 205.8 48.13
1 -9 11 210.11 40.38
1 -9 12 47.84 18.58
1 -9 12 62.47 26.64
1 -9 13 450.93 70.51
1 -9 14 25.27 22.9
1 -9 15 351.16 67.07
1 -9 16 11.33 28.1
1 -9 17 89.23 44.38
1 -9 18 68.31 35.3
1 -8 -23 165.52 54.07
1 -8 -22 86.02 44.19
1 -8 -21 87.17 39.18
1 -8 -20 160.76 50.86
1 -8 -19 58.13 39.39
1 -8 -18 535.72 79.71
1 -8 -17 9.22 20.28
1 -8 -16 427.42 69.26
1 -8 -15 298.51 56.46
1 -8 -14 56.36 34
1 -8 -13 1287.41 112.68
1 -8 -12 159.36 42.51
1 -8 -11 1099.67 100.37
1 -8 -10 45.52 27.68
1 -8 -9 1014.09 92.78
1 -8 -8 162.83 42.54
1 -8 -7 302.39 51.5
1 -8 -6 472.15 62.05
1 -8 -6 403.76 38.31
1 -8 -5 414.23 40.35
1 -8 -5 417.57 58.75
1 -8 -4 352.7 39.14
1 -8 -4 375.77 55.35
1 -8 -3 73.5 24.24
1 -8 -3 61.56 19.54
1 -8 -2 793.31 58.74
1 -8 -2 843.53 69.14
1 -8 -1 79.75 24.45
1 -8 -1 86.36 23.28
1 -8 0 258.01 38.15
1 -8 0 220.07 33.42
1 -8 1 634.48 57.58
1 -8 1 694.05 61.59
1 -8 2 121.18 28.42
1 -8 2 111.96 24.71
1 -8 3 417.29 48.49
1 -8 3 440.19 50.56
1 -8 4 38.2 21.35
1 -8 4 63.9 20.84
1 -8 5 778.76 65.72
1 -8 5 861.11 74.81
1 -8 6 42.16 23.26
1 -8 6 36.5 17.84
1 -8 7 866.78 70.57
1 -8 7 862.03 79.53
1 -8 8 369.06 47.23
1 -8 8 389.54 56.36
1 -8 9 516.28 55.69
1 -8 9 513.6 64.62
1 -8 10 471.1 54.14
1 -8 10 537.25 68.34
1 -8 11 728.65 81.68
1 -8 12 253.47 51.45
1 -8 13 27.02 23.24
1 -8 14 689.75 85.45
1 -8 15 44.24 27.93
1 -8 16 124.61 40.48
1 -8 17 172.05 49.42
1 -8 18 33.46 23.47
1 -8 19 177.7 50.93
1 -7 -24 143.82 52.85
1 -7 -23 30.88 29.03
1 -7 -22 30.87 27.3
1 -7 -21 145.55 48.29
1 -7 -20 16.4 18.67
1 -7 -19 178.89 49.63
1 -7 -18 17.21 25.7
1 -7 -17 369.72 62.08
1 -7 -16 37.61 26.77
1 -7 -15 529.81 71.67
1 -7 -14 1115.74 102.27
1 -7 -13 649.13 76.44
1 -7 -12 872.05 85.77
1 -7 -11 12.08 15.49
1 -7 -10 321.43 51.62
1 -7 -9 708.97 72.79
1 -7 -8 823.51 77.01
1 -7 -7 463.27 56.39
1 -7 -6 281.66 46.42
1 -7 -5 2395.78 89.2
1 -7 -5 2624.5 135
1 -7 -4 22.3 12.9
1 -7 -4 31.78 23.5
1 -7 -3 732.08 50.2
1 -7 -3 746.85 61.48
1 -7 -3 801.35 72.81
1 -7 -2 308.5 34.29
1 -7 -2 333.4 41.11
1 -7 -1 367.65 37.75
1 -7 -1 436.02 46.1
1 -7 0 312.61 37.67
1 -7 0 297.03 37.6
1 -7 1 100.42 24.65
1 -7 1 104.46 24.14
1 -7 2 2280.56 106.9
1 -7 2 2343.43 107.45
1 -7 3 14.29 15.7
1 -7 3 12.42 11.01
1 -7 4 829.92 67.04
1 -7 4 878.07 64.73
1 -7 5 371.95 47.15
1 -7 5 342.11 42.12
1 -7 6 1031.94 72.15
1 -7 6 995.37 78.27
1 -7 7 186.04 31.78
1 -7 7 161.43 33.59
1 -7 8 62.52 26.3
1 -7 9 1125.73 90.45
1 -7 10 237.61 42.45
1 -7 11 1035.86 91.98
1 -7 12 214.03 46.23
1 -7 13 140.29 39.18
1 -7 14 208.42 47.59
1 -7 15 -8.41 21.46
1 -7 16 223.71 50.02
1 -7 17 22.75 30.73
1 -7 18 224.47 54.09
1 -7 19 27.67 24.17
1 -7 20 65.98 32.34
1 -6 -24 82.5 37.91
1 -6 -23 8.55 25.25
1 -6 -22 128.66 43.35
1 -6 -21 53.42 29.6
1 -6 -20 307.23 63.2
1 -6 -19 72.3 29.96
1 -6 -18 221.25 49.93
1 -6 -17 101.88 37.5
1 -6 -16 48.24 30.33
1 -6 -15 178.34 42.36
1 -6 -14 80.22 30.84
1 -6 -13 129.27 35.28
1 -6 -12 167.17 38.07
1 -6 -11 647.57 68.74
1 -6 -10 831.87 76.82
1 -6 -9 291.22 29.27
1 -6 -9 318.03 47.45
1 -6 -8 46.69 21.85
1 -6 -7 181.73 35.47
1 -6 -6 904.28 75.05
1 -6 -5 893.71 47.65
1 -6 -5 970.03 76.69
1 -6 -4 689.81 44.02
1 -6 -4 775.73 68.83
1 -6 -3 1584.68 96.39
1 -6 -3 1490.84 66.43
1 -6 -3 1481.41 82.85
1 -6 -2 15.1 13.49
1 -6 -2 17.95 13.4
1 -6 -2 17.46 17.05
1 -6 -1 18.76 10.83
1 -6 -1 10.3 13.46
1 -6 0 210.29 29.09
1 -6 0 197.17 31.75
1 -6 1 1522.7 78.82
1 -6 1 1527.44 80.61
1 -6 2 180.42 28.87
1 -6 2 203.45 30.55
1 -6 3 1974.08 92.25
1 -6 3 1933.82 94.77
1 -6 4 71.39 20.4
1 -6 4 84.21 23.25
1 -6 5 143.19 29.62
1 -6 5 182.18 30.21
1 -6 6 93.9 25.83
1 -6 7 37.51 20.27
1 -6 8 1597.56 99.12
1 -6 9 182.72 37.94
1 -6 9 195.41 26.86
1 -6 10 47.99 23.97
1 -6 10 44.91 14.5
1 -6 11 201.32 39.57
1 -6 12 47.52 27.1
1 -6 13 222.26 44.46
1 -6 14 9.05 17.31
1 -6 15 209.14 46.67
1 -6 16 -61.65 32.59
1 -6 17 193.56 49.52
1 -6 18 117.93 40.33
1 -6 19 24.7 21.71
1 -6 20 200.13 48.99
1 -6 21 -17.43 27.94
1 -5 -24 -4.12 27.61
1 -5 -23 218.98 63.91
1 -5 -22 21.13 32.16
1 -5 -21 118.65 44.43
1 -5 -20 -0.82 23.47
1 -5 -19 57.59 28.02
1 -5 -18 205.53 43.9
1 -5 -17 3.02 23.68
1 -5 -16 306.54 54.69
1 -5 -15 18.25 17.04
1 -5 -14 523.37 64.69
1 -5 -13 266.74 45.69
1 -5 -12 354.5 50.37
1 -5 -11 1074.69 84.09
1 -5 -10 1068.21 80.88
1 -5 -9 125.34 19.89
1 -5 -9 135.83 29.48
1 -5 -8 523.13 36.58
1 -5 -8 639.3 59.64
1 -5 -7 1269.67 54.54
1 -5 -7 1420.63 86.63
1 -5 -6 1035.73 73.27
1 -5 -5 1660.34 92.16
1 -5 -4 1328.69 53.52
1 -5 -4 1400.93 84.35
1 -5 -3 305.85 26.9
1 -5 -3 322.87 36.47
1 -5 -3 319.32 40.39
1 -5 -2 259.21 26.41
1 -5 -2 260.54 37.6
1 -5 -2 264.59 32.85
1 -5 -1 9.96 10.15
1 -5 -1 14.72 12.13
1 -5 0 181.78 24.4
1 -5 0 188.75 27.14
1 -5 1 442.89 40.28
1 -5 1 414.14 37.12
1 -5 2 1184.42 65.21
1 -5 2 1260.41 67.19
1 -5 3 1443.59 74.57
1 -5 3 1413.07 71.79
1 -5 4 532.68 46.53
1 -5 5 1257.79 75.14
1 -5 6 757.62 60.58
1 -5 7 123.97 25.83
1 -5 7 131.65 18.42
1 -5 8 1309.9 60.14
1 -5 8 1341.07 85.77
1 -5 9 744.27 66.1
1 -5 9 716.89 44.07
1 -5 10 440.04 53.67
1 -5 10 361.2 31.65
1 -5 11 487.77 57.69
1 -5 11 356.27 32.44
1 -5 12 287.01 47.09
1 -5 13 118.06 33.95
1 -5 14 263.2 47.69
1 -5 15 13.01 24.33
1 -5 16 256.9 48.94
1 -5 17 47.05 28.55
1 -5 18 101.52 33
1 -5 19 170.14 45.1
1 -5 20 80.81 33.56
1 -5 21 158.09 44.99
1 -5 22 -36.33 35.88
1 -4 -25 78.43 44.12
1 -4 -24 201.67 57.76
1 -4 -23 32.87 25.77
1 -4 -22 41.5 30.37
1 -4 -21 238.97 59.97
1 -4 -20 94.87 35.9
1 -4 -19 338.81 62.6
1 -4 -18 48.06 26.26
1 -4 -17 230.61 48.94
1 -4 -16 50.63 26.15
1 -4 -15 178.03 42.11
1 -4 -14 470.05 59.97
1 -4 -13 164.64 34.42
1 -4 -12 1014.77 81.36
1 -4 -11 285.57 43.7
1 -4 -10 1309.09 86.5
1 -4 -9 1464.81 68.3
1 -4 -9 1501.23 89.86
1 -4 -8 3209.07 99.31
1 -4 -8 3479.98 135
1 -4 -7 283.76 26.19
1 -4 -7 304.19 39.37
1 -4 -6 277.92 23.76
1 -4 -6 322.41 38.67
1 -4 -5 131.31 26.48
1 -4 -4 115.51 14.14
1 -4 -4 134.44 26.55
1 -4 -3 3036.13 77.35
1 -4 -3 3063.96 104.98
1 -4 -3 3124.51 118.52
1 -4 -2 201.44 26.18
1 -4 -2 182.7 18.35
1 -4 -2 198.41 31.09
1 -4 -1 1623.37 60.31
1 -4 -1 1714.99 74.12
1 -4 -1 1774.29 86.53
1 -4 0 1053.35 50.49
1 -4 0 1081.44 57.5
1 -4 1 2165.98 82.94
1 -4 1 2029.36 75.64
1 -4 2 1223.46 61.14
1 -4 2 1194.71 59.77
1 -4 3 166.27 23.12
1 -4 4 122.24 23.75
1 -4 5 640.41 50.98
1 -4 6 3009 84.56
1 -4 6 2959.73 114.59
1 -4 7 346.61 42.25
1 -4 7 394.51 28.9
1 -4 8 1446.92 84.44
1 -4 8 1610.7 61.09
1 -4 9 722.45 62.11
1 -4 10 25.65 18.21
1 -4 11 1231.15 85.87
1 -4 12 13.05 15.49
1 -4 13 476.06 58.08
1 -4 14 64.69 27.68
1 -4 15 141.24 38.37
1 -4 16 174.03 43.06
1 -4 17 35.85 22.99
1 -4 18 423.28 62.49
1 -4 19 -5.52 22.34
1 -4 20 189.6 46.89
1 -4 21 36.62 31.35
1 -4 22 131.29 40.67
1 -4 23 58.99 32.01
1 -3 -25 75.39 48.09
1 -3 -24 12.08 28.32
1 -3 -23 37.95 27.74
1 -3 -22 69.49 36.43
1 -3 -21 6.84 24.64
1 -3 -20 196.7 52.57
1 -3 -19 -60.05 30.62
1 -3 -18 323.76 61.69
1 -3 -17 174.01 41.6
1 -3 -16 270.8 49.53
1 -3 -15 156.57 39.34
1 -3 -14 -10.9 21.56
1 -3 -13 605.61 64.65
1 -3 -12 203.03 36.93
1 -3 -11 533.9 55.92
1 -3 -10 1025.62 73.47
1 -3 -9 45.43 15.48
1 -3 -9 47.06 13.71
1 -3 -8 108.34 25
1 -3 -8 100.39 16.72
1 -3 -7 166.85 26.03
1 -3 -7 169.84 19.47
1 -3 -6 49.6 11.45
1 -3 -6 56.63 18.99
1 -3 -5 30.4 13.9
1 -3 -5 58.93 10.85
1 -3 -4 8450.58 195.41
1 -3 -4 8377.51 140.54
1 -3 -3 180.73 13.56
1 -3 -3 156.43 21.26
1 -3 -3 207.03 26.88
1 -3 -2 424.29 32.83
1 -3 -2 387.04 20.98
1 -3 -2 395.71 35.49
1 -3 -1 2362.35 63.87
1 -3 -1 2536.98 82.82
1 -3 -1 2599.39 94.97
1 -3 0 1923.22 59.51
1 -3 0 1985.52 70.63
1 -3 1 1471.62 58.01
1 -3 1 1467.45 55.18
1 -3 1 1449.25 60.27
1 -3 2 300.72 26.88
1 -3 2 270.07 25.11
1 -3 3 8443.75 175.98
1 -3 3 8667.06 180.41
1 -3 4 32.72 12.94
1 -3 5 176.53 24.26
1 -3 5 170.14 15.93
1 -3 6 130.39 24.67
1 -3 6 115.73 14.87
1 -3 7 25.75 7.79
1 -3 7 19.51 16.29
1 -3 8 49.74 8.37
1 -3 8 57 21.79
1 -3 9 448.9 21.03
1 -3 9 536.95 50.95
1 -3 10 572.06 55.26
1 -3 10 501.7 22.12
1 -3 11 23.02 18.45
1 -3 12 273.4 40.36
1 -3 13 24.82 13.01
1 -3 14 138.78 33.38
1 -3 15 310.08 49.5
1 -3 16 72.64 28.46
1 -3 17 416.86 60.63
1 -3 18 246.26 51.13
1 -3 19 176.84 43.75
1 -3 20 28.84 20.89
1 -3 21 61.3 34.19
1 -3 22 23.82 25.91
1 -3 23 -3.59 27.22
1 -3 24 56.59 33.03
1 -2 -25 134.82 55.31
1 -2 -24 131.09 52.51
1 -2 -23 93.12 43.48
1 -2 -22 45.42 36.16
1 -2 -21 217.31 57.66
1 -2 -20 16.48 23.81
1 -2 -19 575.16 84.31
1 -2 -18 43.03 22.99
1 -2 -17 327.62 59.32
1 -2 -16 252.69 50.68
1 -2 -15 6.37 17.11
1 -2 -14 155.25 35.31
1 -2 -13 -1.14 16.81
1 -2 -12 307.87 45.08
1 -2 -11 517.73 55.44
1 -2 -10 458.38 49.14
1 -2 -9 853.68 62.59
1 -2 -8 168.01 22.58
1 -2 -8 221.72 31.47
1 -2 -7 544.7 35.65
1 -2 -7 584.06 47.41
1 -2 -6 244.02 21.85
1 -2 -6 224.05 28.69
1 -2 -5 5071.67 135.44
1 -2 -5 4967.83 104.17
1 -2 -4 11.49 5.67
1 -2 -4 2.1 8.58
1 -2 -3 24.96 5.56
1 -2 -3 22.02 9.55
1 -2 -3 30.75 11.7
1 -2 -2 3777.09 103.72
1 -2 -2 3796.16 95.98
1 -2 -1 213.06 24.02
1 -2 -1 209.42 20.92
1 -2 -1 200.68 13.62
1 -2 0 4865.39 112.28
1 -2 0 5230.28 95.52
1 -2 1 2296.37 65.25
1 -2 1 2275.67 62.12
1 -2 2 1021.18 42.32
1 -2 2 1051.61 43.97
1 -2 2 1016.4 37.23
1 -2 3 1859.78 65.84
1 -2 3 1992.25 52.55
1 -2 4 86.36 10.64
1 -2 4 112.53 18.92
1 -2 5 3773.31 110.63
1 -2 6 68.08 16.99
1 -2 7 343.52 36.19
1 -2 8 68.51 19.76
1 -2 9 856.44 60.51
1 -2 10 186.07 31.27
1 -2 11 307 39.5
1 -2 12 235.68 36.52
1 -2 13 101.14 27.63
1 -2 14 231.43 38.98
1 -2 15 9.33 14.53
1 -2 16 335.81 50.2
1 -2 17 200.25 41.3
1 -2 18 180.41 39.57
1 -2 19 341.74 56.1
1 -2 20 52.64 26.57
1 -2 21 270.73 54.36
1 -2 22 -14.54 26.57
1 -2 23 195.44 49.99
1 -2 24 85.58 34.59
1 -2 25 74.21 36.5
1 -1 -25 -6.68 30.83
1 -1 -24 235.2 67.72
1 -1 -23 92.44 42.77
1 -1 -22 95.12 43.41
1 -1 -21 333.33 69.02
1 -1 -20 17.08 30.45
1 -1 -19 319.6 63.82
1 -1 -18 40.96 28.09
1 -1 -17 236.97 50.45
1 -1 -8 1583.38 68.76
1 -1 -7 659.43 40.34
1 -1 -7 645.99 48.61
1 -1 -6 4598.58 109.33
1 -1 -6 4618.57 129.92
1 -1 -5 18.74 11.34
1 -1 -5 10.95 7.14
1 -1 -4 177.4 21.13
1 -1 -4 140.27 13.32
1 -1 -3 7735.92 121.8
1 -1 -3 7656.24 151.77
1 -1 2 4248.66 88.49
1 -1 3 1903.37 59.81
1 -1 4 786.13 41.23
1 -1 5 1210.09 55.76
1 -1 6 3979.66 115
1 -1 7 16.28 13.28
1 -1 8 1856 84.4
1 -1 9 328.8 36.4
1 -1 10 801.49 60.32
1 -1 11 1059.85 72.53
1 -1 11 1133.36 73.34
1 -1 12 17.91 13.11
1 -1 12 37.11 18.95
1 -1 13 2756.34 125.28
1 -1 13 2569.46 123.5
1 -1 14 6.06 18.46
1 -1 15 122.17 29.64
1 -1 16 262.28 43.71
1 -1 17 54.16 23.27
1 -1 18 124.31 34.01
1 -1 19 68.89 29.63
1 -1 20 156.78 40.32
1 -1 21 29.32 27.13
1 -1 22 64.46 26.54
1 -1 23 57.7 30.68
1 -1 24 43.15 27.49
1 -1 25 180.58 51.25
1 -1 26 25.81 23.93
1 0 -24 86.03 47.24
1 0 -23 24.66 32.35
1 0 -22 362.85 78.76
1 0 -8 334.43 33.99
1 0 -7 15.21 9.54
1 0 -7 23.34 10.22
1 0 -6 1393.91 58.37
1 0 -6 1383.67 60.37
1 0 -5 -0.76 7.07
1 0 -5 9.24 10.38
1 0 -4 1925.31 54.22
1 0 -4 1929.84 58.41
1 0 -4 1936.86 62.79
1 0 -3 126.26 11.67
1 0 -3 134.66 15.81
1 0 4 259.42 22.26
1 0 5 1776.94 65.14
1 0 6 74.07 16.49
1 0 7 680.59 45.57
1 0 8 81.95 18.71
1 0 8 84.88 13.4
1 0 9 182.11 28.67
1 0 9 158.72 18.98
1 0 10 2406.21 103.14
1 0 10 2370.6 76.55
1 0 11 5.6 7.35
1 0 11 9.46 12.2
1 0 12 1014.42 72.25
1 0 12 958.96 49.75
1 0 13 532.12 37.46
1 0 13 365.93 45.02
1 0 14 372.62 47.27
1 0 15 545.32 59.22
1 0 15 601.08 60.23
1 0 16 226.01 39.66
1 0 16 280.85 44.24
1 0 17 408.7 53.88
1 0 18 -7.95 15.26
1 0 19 251.84 47
1 0 20 133.12 36.61
1 0 21 293.8 53.36
1 0 22 49.93 26.97
1 0 23 -28.37 24.34
1 0 24 32.91 23.24
1 0 25 -20.7 29.87
1 0 26 156.74 43.41
1 1 -10 1758.78 77.73
1 1 -9 1646.84 72.28
1 1 -8 248.99 26.12
1 1 -7 3036.48 89.51
1 1 -6 122.94 15.32
1 1 -6 129.27 18.34
1 1 -6 103.12 17.73
1 1 -5 6690.35 143.3
1 1 -4 402.77 27.29
1 1 -3 1004.07 40.3
1 1 3 32.47 8.92
1 1 4 2995 81.96
1 1 5 3143.99 90.11
1 1 6 1971.51 73.99
1 1 7 2039.97 78.91
1 1 8 675.29 47.32
1 1 9 1940.66 86.52
1 1 10 174.31 27.53
1 1 11 1113.98 59.56
1 1 11 1276.65 75.97
1 1 12 865.72 65.89
1 1 13 14.5 12.97
1 1 14 607.68 60.31
1 1 15 64.62 24.45
1 1 16 271.34 44.87
1 1 17 18.29 14.18
1 1 17 8.48 14.81
1 1 18 154.95 35.65
1 1 18 118.73 32.51
1 1 19 92.11 29.2
1 1 20 -15.24 23.24
1 1 21 117.45 36.35
1 1 22 44.67 29.16
1 1 23 182.29 46.59
1 1 24 28.1 23.23
1 1 25 108.4 38.45
1 1 26 27.87 26.77
1 1 27 22.45 28.88
1 2 -12 604.37 46.54
1 2 -11 840.56 53.61
1 2 -10 33.41 13.32
1 2 -9 121.39 19.78
1 2 -5 1481.49 64.46
1 2 -4 100.08 17.67
1 2 -3 389.93 28.98
1 2 -2 4259.13 101.97
1 2 -2 4357.35 90.15
1 2 -1 122.22 15.43
1 2 -1 106.58 9.24
1 2 0 18.39 7.85
1 2 0 25.64 9.39
1 2 1 1193.65 46.09
1 2 1 1111.57 37.91
1 2 1 1186.9 52.44
1 2 2 2784.06 75.47
1 2 2 2519.86 70.02
1 2 2 2797.4 86.57
1 2 2 2602.32 63.55
1 2 3 457.6 29.2
1 2 3 476.37 37.85
1 2 3 431.84 25.5
1 2 4 1918.94 64.77
1 2 5 2914.23 86.74
1 2 6 4.65 8.97
1 2 7 31.19 12.63
1 2 8 1924.03 80.93
1 2 9 135.68 24.35
1 2 10 48.03 16.76
1 2 11 225.87 31.18
1 2 12 71.81 21.4
1 2 13 830.52 66.36
1 2 14 260.95 38.45
1 2 15 649.89 63.63
1 2 16 2.23 16.36
1 2 17 165.78 34.42
1 2 18 167.03 37.39
1 2 19 149.59 37.98
1 2 19 142.03 34.62
1 2 20 372.09 56.81
1 2 20 408.07 57.43
1 2 21 77.08 32.97
1 2 22 422.82 63.14
1 2 23 110.46 35.95
1 2 24 244.45 54.21
1 2 25 74.91 35.64
1 3 -14 1370.35 72.28
1 3 -13 134.74 23.43
1 3 -12 47.7 13.68
1 3 -11 92.33 18.16
1 3 -4 603.62 42.02
1 3 -3 12.6 8.06
1 3 -3 17.85 11.19
1 3 -2 2808.47 79.51
1 3 -2 2886.52 89.56
1 3 -1 208.54 16.8
1 3 -1 236.82 24.2
1 3 0 3547.81 97.05
1 3 0 3637.05 84.61
1 3 0 3679.32 111.22
1 3 1 2166.9 71.47
1 3 1 2184.95 84.43
1 3 1 2096.54 69.74
1 3 2 220.57 21.74
1 3 2 255.46 23.82
1 3 2 264.02 23.64
1 3 2 266.94 33.1
1 3 3 2635.05 82.13
1 3 3 2638.7 79.85
1 3 3 2615.67 101.69
1 3 3 2608.52 78.3
1 3 4 257.46 25.37
1 3 4 244.31 23.98
1 3 4 275.25 25.34
1 3 5 757.94 43.86
1 3 5 773.76 45.12
1 3 6 930.73 50.65
1 3 7 600.08 43.67
1 3 8 2267.7 90.46
1 3 9 57.67 17.32
1 3 10 1717.08 84.14
1 3 11 4.51 11.25
1 3 12 67.97 21.75
1 3 13 34.19 17.09
1 3 14 235.26 37.16
1 3 15 340.94 46.55
1 3 16 826.32 74.93
1 3 17 565.84 63.86
1 3 18 359.06 52.77
1 3 19 21.97 18.42
1 3 20 90.74 32.98
1 3 21 333.18 54.44
1 3 21 301.49 54.72
1 3 22 98.01 33.08
1 3 23 44.66 29.07
1 3 24 37.17 18.36
1 4 -15 255.75 32.14
1 4 -14 768.52 53.67
1 4 -13 19.8 12.31
1 4 -12 1091.98 57.92
1 4 -3 1155.4 55.85
1 4 -2 422.88 33.53
1 4 -2 372.98 33.92
1 4 -1 1049.66 45.42
1 4 -1 1070.52 56.35
1 4 -1 1034.76 63.44
1 4 0 46.59 12.78
1 4 0 48.76 14.99
1 4 0 49.58 12.36
1 4 1 13.93 9.58
1 4 1 24.94 10.01
1 4 1 9.42 12.58
1 4 1 27.78 12.25
1 4 2 939.4 50.45
1 4 2 1032.52 52.47
1 4 2 957.58 52.11
1 4 2 946.57 63.65
1 4 3 139.87 19.57
1 4 3 125.71 19.33
1 4 3 144.36 28.69
1 4 3 129.19 19.61
1 4 4 942.11 50.24
1 4 4 858.17 50.22
1 4 4 931.04 67.43
1 4 4 951.27 52.97
1 4 5 2165.49 82.66
1 4 5 2135.11 79.99
1 4 5 2263.96 87.49
1 4 6 1525.29 70.49
1 4 6 1573.81 75.34
1 4 6 1460.01 67.93
1 4 7 2028.93 83.21
1 4 8 445.26 40.52
1 4 9 814.34 56.34
1 4 10 21.36 13.51
1 4 11 2375.98 105.43
1 4 12 53.22 16.35
1 4 13 754.61 62.6
1 4 14 635.85 59.92
1 4 15 703.45 65.27
1 4 16 413.37 52.52
1 4 17 -2.74 14.72
1 4 18 756.33 75.08
1 4 19 14.22 15.58
1 4 20 285.94 49.29
1 4 21 54.96 28.18
1 4 22 20.25 21.84
1 4 22 42.76 25.32
1 4 23 176.45 43.12
1 4 23 181.02 42.79
1 5 -14 58.24 16.69
1 5 -7 250.79 13.59
1 5 -4 1333.18 67.81
1 5 -3 1040.04 59.46
1 5 -2 374.72 35.69
1 5 -1 1751.83 68.52
1 5 -1 1738.18 75.08
1 5 -1 1753.27 91.39
1 5 0 64.44 20.58
1 5 0 51.06 15.79
1 5 0 79.88 20.33
1 5 1 3236.97 107.54
1 5 1 3174.71 102.38
1 5 1 3279.99 129.95
1 5 1 3253.28 117.09
1 5 2 48 15.36
1 5 2 54.74 15.26
1 5 2 54.21 22.15
1 5 2 60.74 18.63
1 5 3 1789.04 77.15
1 5 3 1729.77 72.54
1 5 3 1650.32 79.58
1 5 3 1790.69 98.84
1 5 4 164.4 25.32
1 5 4 196.96 26.9
1 5 4 225.45 27.46
1 5 4 217.41 38.9
1 5 5 1607.16 75.33
1 5 5 1638.43 73.63
1 5 5 1615.19 101.01
1 5 6 659.58 48.93
1 5 6 703.76 49.15
1 5 7 42.2 15.94
1 5 8 1673.61 80.34
1 5 9 112.91 23.31
1 5 10 1521.53 82.25
1 5 11 211.88 32.9
1 5 12 142.62 28.21
1 5 13 610.65 57.2
1 5 14 -8.8 14.2
1 5 15 795.44 70.36
1 5 16 -1.47 15.06
1 5 17 129.68 32.35
1 5 18 191.21 38.82
1 5 19 276.92 49.89
1 5 20 140.24 39.2
1 5 21 64.91 27.15
1 5 22 235.18 49.05
1 5 23 -7.31 18.74
1 5 24 222.18 52.46
1 6 -4 953.47 61.85
1 6 -3 344.49 38.58
1 6 -2 1198.27 68.53
1 6 -1 555 57.02
1 6 -1 620.45 48.69
1 6 0 5686.96 188.51
1 6 1 849.39 70.61
1 6 2 3054.54 137.9
1 6 3 2221.37 118.43
1 6 4 46.92 24.19
1 6 4 82.22 20.45
1 6 5 1640.02 78.08
1 6 5 1756.52 110.56
1 6 6 260.77 42.71
1 6 6 265.94 32.59
1 6 7 1090.09 65.86
1 6 8 585.74 50.04
1 6 9 1405.29 77.39
1 6 10 379.8 41.78
1 6 11 20.55 10.66
1 6 12 601.71 55.99
1 6 13 148.19 30.87
1 6 14 44.26 21.12
1 6 15 684.74 64.48
1 6 16 579.98 61.15
1 6 17 626.22 67.29
1 6 18 43.68 22.35
1 6 19 10.12 16.76
1 6 20 -1.66 17.44
1 6 21 106.4 35.76
1 6 22 27.5 22.61
1 6 23 11.92 19.07
1 6 24 30.03 23.12
1 7 -8 484.3 25.94
1 7 -4 41.1 15.73
1 7 -3 382.46 42.54
1 7 -2 2.98 12.12
1 7 -1 192.53 30.18
1 7 -1 186.51 36.75
1 7 0 18.07 14.32
1 7 1 75.52 20.96
1 7 2 243.51 40.1
1 7 3 117.89 34.42
1 7 4 92.58 21.04
1 7 4 135.7 32.86
1 7 5 -6.82 13.84
1 7 5 27.85 25.01
1 7 6 451.67 44.42
1 7 6 509.33 65.76
1 7 7 214.13 31.64
1 7 7 189.3 44.32
1 7 8 853.03 63.23
1 7 8 806.55 85.8
1 7 9 985.5 68.31
1 7 10 190.53 32.23
1 7 11 935.83 69.71
1 7 12 301.71 40.95
1 7 13 1573.82 96.14
1 7 14 115.69 30.05
1 7 15 565.41 59.68
1 7 16 129.01 30.19
1 7 17 9.05 16.93
1 7 18 376.49 54.3
1 7 19 -15.1 25.5
1 7 20 274.98 50.36
1 7 21 42.83 28.79
1 7 22 113.09 35.89
1 7 26 -70.9 43.17
1 8 -4 1945.55 103.94
1 8 -3 102.84 29.32
1 8 -2 1033.54 74.05
1 8 -1 790.72 64.89
1 8 -1 670.14 71.93
1 8 0 531.28 52.65
1 8 0 476.27 60.98
1 8 1 1401.01 105.1
1 8 2 113.69 34.98
1 8 3 1724.69 119.38
1 8 4 185.95 29.09
1 8 4 215.22 45.52
1 8 5 527.05 48.19
1 8 5 552.37 70.91
1 8 6 1435.32 81.52
1 8 6 1445.97 115.57
1 8 7 333.71 40.26
1 8 7 296.02 54.23
1 8 8 830.79 90.59
1 8 8 1005.32 70.74
1 8 9 78.64 34.25
1 8 9 83.34 22.41
1 8 10 1879.82 100.28
1 8 10 1783.57 140.58
1 8 11 94.03 35.57
1 8 11 73.59 23.38
1 8 12 851.19 71.05
1 8 13 333.3 45.56
1 8 14 75.18 24.33
1 8 15 1388.11 95.82
1 8 16 75.82 27.81
1 8 17 259.04 43.62
1 8 18 -3.5 17.51
1 8 19 178.53 40.47
1 8 20 -2.5 16.34
1 8 24 18.88 34.49
1 8 25 78.32 50.79
1 9 -4 90.57 26.19
1 9 -3 398.1 50.59
1 9 -2 627.38 62.51
1 9 -1 282.26 43.26
1 9 -1 303.43 53.27
1 9 0 1292.25 88.05
1 9 0 1301.27 106.94
1 9 1 99.53 34.45
1 9 2 951.29 92.57
1 9 3 436.63 64.1
1 9 4 804.13 88.26
1 9 4 879.92 65.56
1 9 5 580.53 54.93
1 9 5 573.34 76.28
1 9 6 151.9 29.89
1 9 6 93.01 33.25
1 9 7 376.79 65.67
1 9 7 454.37 49.61
1 9 8 70.93 22.97
1 9 8 30.59 22.92
1 9 9 8.66 14.09
1 9 9 18.87 24.85
1 9 10 114.15 28.44
1 9 10 86.76 39.08
1 9 11 41.72 20.8
1 9 11 49.45 36.49
1 9 12 38.77 32.1
1 9 12 80.26 23.17
1 9 13 238.68 61.42
1 9 13 267.42 42.29
1 9 14 70.68 38.78
1 9 14 46.81 23.66
1 9 15 -42.87 19.97
1 9 15 58.58 34.99
1 9 16 211.88 40.04
1 9 16 167.08 51.43
1 9 17 37.01 17.41
1 9 17 57.73 39.27
1 9 18 71.17 43.92
1 9 19 120.86 56.04
1 9 20 17.54 40.62
1 9 21 228.58 68.14
1 9 22 -6.34 30.01
1 9 23 157.97 58.67
1 10 -4 686.85 69.5
1 10 -3 211.17 40.75
1 10 -2 94.01 29.55
1 10 -1 907.22 78.26
1 10 -1 756.26 85.52
1 10 0 154.73 35.85
1 10 0 119.96 40.69
1 10 1 930.27 96.13
1 10 1 973.93 80.77
1 10 2 465.66 69.11
1 10 3 560.63 77.36
1 10 4 683.19 88.07
1 10 4 675.27 59.74
1 10 5 34.37 30.1
1 10 5 64.33 22.65
1 10 6 392.06 47.6
1 10 6 382.6 66.74
1 10 7 288.26 41.66
1 10 7 241.56 53.55
1 10 8 700.15 92.33
1 10 8 662.77 63.47
1 10 9 344.89 71.35
1 10 9 325.23 44.34
1 10 10 419.73 50.68
1 10 10 412.9 74
1 10 11 11.58 18.66
1 10 11 7.43 27.66
1 10 12 15.37 27.47
1 10 12 23.91 17.51
1 10 13 174.5 54.13
1 10 13 170.83 35.41
1 10 14 38.07 22.9
1 10 14 63 33.23
1 10 15 172.14 52.62
1 10 15 126.93 33.01
1 10 16 45.55 31.82
1 10 17 47.09 37.31
1 10 18 99.74 52.89
1 10 19 47.17 37.3
1 10 20 175.87 63.11
1 10 21 -1.61 27.94
1 10 22 88.09 49.67
1 11 -4 310.44 50.29
1 11 -3 33.99 24.61
1 11 -2 1087.96 91.66
1 11 -1 379.91 58.95
1 11 0 500.86 62.68
1 11 0 449.63 71.13
1 11 1 1034.2 106.1
1 11 1 1005.9 87.11
1 11 2 614.7 70.79
1 11 2 469.24 75.94
1 11 3 760.74 95.75
1 11 4 166.93 35.37
1 11 4 78.24 34.71
1 11 5 989.33 76.54
1 11 5 994.13 108.89
1 11 6 165.85 52.98
1 11 6 234.46 43.31
1 11 7 414.52 74.41
1 11 7 448.88 54.03
1 11 8 276.98 44.55
1 11 8 205.95 53.27
1 11 9 91.87 26.65
1 11 9 30.34 27.01
1 11 10 988.68 117.63
1 11 10 1137.58 86.49
1 11 11 67.06 26.95
1 11 11 79.89 41.26
1 11 12 791.06 110.13
1 11 13 67.42 42.63
1 11 14 345.49 81.73
1 11 15 243.25 67.64
1 11 16 90.53 47.44
1 11 17 170.53 58.78
1 11 18 4.49 31.19
1 11 19 118.54 61.88
1 11 20 72.42 52.93
1 12 -4 70.8 31.68
1 12 -3 480.9 66.02
1 12 -2 235.33 47.89
1 12 -1 218.91 46.17
1 12 0 211.93 52.86
1 12 0 367.23 56.52
1 12 1 23.46 18.91
1 12 1 62.41 30.42
1 12 2 325.88 53.23
1 12 2 241.62 56.85
1 12 3 29.81 20.62
1 12 3 94.18 33.75
1 12 4 340.44 47.68
1 12 4 271.7 63.12
1 12 5 203.92 40.12
1 12 5 138.48 48.77
1 12 6 213.18 58.85
1 12 6 310.87 47.4
1 12 7 418.52 75.17
1 12 7 545.11 61.77
1 12 8 241.07 43.56
1 12 8 152.65 55.76
1 12 9 277.03 63.47
1 12 10 34.37 36.35
1 12 11 477.29 85.89
1 12 12 149.55 54.47
1 12 13 205.02 63.04
1 12 14 96.93 44.44
1 12 15 -33.9 41.07
1 12 16 195.96 61.96
1 12 17 65.06 49.76
1 12 18 178.71 66.02
1 13 -4 468.29 68.95
1 13 -3 213.82 49.51
1 13 -2 59.34 25.46
1 13 -1 388.78 60.57
1 13 0 216.41 50.75
1 13 1 736.98 100.55
1 13 1 832.33 88.03
1 13 2 168.62 52.36
1 13 2 379.74 63.08
1 13 3 765.76 86.18
1 13 3 672.35 96.67
1 13 4 538.84 73.44
1 13 4 431.51 55.48
1 13 4 408.1 78.73
1 13 5 356.01 76.57
1 13 6 235.97 65.91
1 13 7 25.79 36.03
1 13 8 392.7 80.31
1 13 9 90.3 39.65
1 13 10 349.7 81.37
1 13 11 194.59 62.93
1 13 12 53.52 29.66
1 13 13 139.55 49.51
1 13 14 65.04 52.25
1 13 15 133.3 59.19
1 13 16 20.52 33.44
1 14 -3 81.6 38.55
1 14 -2 428.33 68.34
1 14 -1 158.96 44.29
1 14 0 537.68 75.53
1 14 1 160.56 46.73
1 14 2 72.83 43.06
1 14 2 167.63 46.89
1 14 3 218.7 50.29
1 14 3 106.62 47.29
1 14 4 141.06 44.26
1 14 4 32.57 27.28
1 14 5 597.54 80.47
1 14 5 577.1 98.01
1 14 6 70.15 42.37
1 14 7 434.41 83.01
1 14 8 84.07 49.72
1 14 9 199.79 60.88
1 14 10 102.66 38.57
1 14 11 15.9 38.82
1 14 12 213.46 70.19
1 14 13 20.58 29
1 14 14 168.65 68
1 15 -2 90.71 41.41
1 15 -1 269.58 59.48
1 15 0 188.59 52.37
1 15 1 141.96 41.65
1 15 2 344.27 63.95
1 15 3 209.28 54.62
1 15 3 233.9 67.07
1 15 4 376.79 70.23
1 15 4 280.04 71.13
1 15 5 188.54 49.03
1 15 5 95.43 48.05
1 15 6 258.95 57.83
1 15 6 260.09 77.13
1 15 7 243.93 57
1 15 7 197.57 67.49
1 15 8 56.41 38.25
1 15 9 64.65 48.71
1 15 10 38.78 29.87
1 15 11 143.81 54.12
1 16 4 34.25 34.88
1 16 5 -31.89 34.91
1 16 6 209.2 69.89
1 16 7 9.48 38.51
2 -14 -13 260.27 70.21
2 -14 -12 20.74 34.02
2 -14 2 232.7 48.17
2 -14 3 31.03 23
2 -14 4 257.45 53.69
2 -14 4 351.5 62.93
2 -14 5 -7.52 20.04
2 -14 6 82.53 38.2
2 -14 7 140.24 41.29
2 -14 8 45.31 32.9
2 -14 9 217.68 55.72
2 -13 -16 83.36 49.42
2 -13 -15 -30.06 27.44
2 -13 -14 116.53 50.17
2 -13 -13 117.1 51.76
2 -13 -12 41.35 38.59
2 -13 -11 318.22 69.02
2 -13 0 201.01 51.14
2 -13 1 76.55 29.65
2 -13 1 99.29 32.84
2 -13 2 44.77 27.39
2 -13 2 36.99 27.25
2 -13 3 191.8 43.32
2 -13 3 259.24 51.16
2 -13 4 -7.5 18.73
2 -13 4 1.52 22.04
2 -13 5 190.69 47.93
2 -13 5 264.11 51.51
2 -13 6 83.35 37.68
2 -13 6 54.06 24.86
2 -13 7 45.64 31.42
2 -13 8 165.25 45.91
2 -13 9 7.96 23.57
2 -13 10 157.09 51.47
2 -13 11 8.17 30.76
2 -12 -18 71.12 42.71
2 -12 -17 121.88 52.87
2 -12 -16 219.08 62.09
2 -12 -15 40.56 24.87
2 -12 -14 181.11 54.73
2 -12 -13 95.54 44.33
2 -12 -12 107.55 44.46
2 -12 -11 119.9 44.88
2 -12 -10 57.63 32.99
2 -12 -9 134.36 44.26
2 -12 -2 309.87 46.57
2 -12 -1 264.03 44.88
2 -12 -1 297.56 55.56
2 -12 0 295.77 47.98
2 -12 0 329.25 54.36
2 -12 1 122.83 35.13
2 -12 1 26.81 15.6
2 -12 2 299.9 51.25
2 -12 2 412.81 61.52
2 -12 3 33.8 22.53
2 -12 3 -17.22 24.56
2 -12 4 252.07 51.54
2 -12 4 318.8 53.17
2 -12 5 129.85 38.51
2 -12 5 84.83 33.64
2 -12 6 34.44 18.94
2 -12 6 47.77 26.54
2 -12 7 49.38 29.61
2 -12 7 46.54 28.56
2 -12 8 86.73 32.74
2 -12 8 43.43 17.76
2 -12 9 110.5 38.07
2 -12 10 -34.83 25.35
2 -12 11 230.5 57.92
2 -12 12 9.79 25.49
2 -12 13 48.31 35.19
2 -11 -19 17.52 26.22
2 -11 -18 -7.61 29.99
2 -11 -17 164.22 58.05
2 -11 -16 -35.66 31.44
2 -11 -15 265.79 65.78
2 -11 -14 77.92 43.82
2 -11 -13 364.39 72.95
2 -11 -12 183.29 55.16
2 -11 -11 94.28 37.76
2 -11 -10 293.88 62.91
2 -11 -9 125.69 48.81
2 -11 -8 565.98 83.05
2 -11 -7 87.43 45.1
2 -11 -4 149.68 30.09
2 -11 -3 382.13 47.38
2 -11 -2 120.5 28.39
2 -11 -2 104.93 32.1
2 -11 -1 474.22 63.31
2 -11 -1 381.89 48.51
2 -11 0 8.76 21.39
2 -11 0 63.29 29.61
2 -11 1 118.09 30.11
2 -11 1 112.65 35.11
2 -11 2 316.29 50.39
2 -11 2 225.43 42.97
2 -11 3 50.48 19.61
2 -11 3 144.05 39.49
2 -11 4 311.47 51.58
2 -11 4 428.07 61.44
2 -11 5 70.94 33.31
2 -11 5 -0.98 18.06
2 -11 6 258.22 50.28
2 -11 6 359.98 54.49
2 -11 7 -6.83 19.15
2 -11 7 5.38 15.38
2 -11 8 323.96 57.25
2 -11 8 304.11 52.43
2 -11 9 41.02 24.98
2 -11 9 49.32 26.46
2 -11 10 253.74 53
2 -11 10 181.56 42.25
2 -11 11 133.21 41.17
2 -11 12 95.85 41.62
2 -11 13 17.81 32.73
2 -11 14 -14.48 30.37
2 -10 -21 54.7 37.87
2 -10 -20 124.03 51.2
2 -10 -19 -39.28 25.51
2 -10 -18 423.72 78.54
2 -10 -17 71.07 35.51
2 -10 -16 416.22 77.81
2 -10 -15 21.55 22.59
2 -10 -14 178.93 50.67
2 -10 -13 217.08 53.77
2 -10 -12 71.69 32.62
2 -10 -11 215.21 53.78
2 -10 -10 99.65 39.21
2 -10 -9 222.2 51.55
2 -10 -8 88.86 36.34
2 -10 -7 258.95 53.97
2 -10 -6 103.52 22.07
2 -10 -6 110.04 39.92
2 -10 -5 62.7 19.48
2 -10 -4 120.85 24.56
2 -10 -3 24.62 16.91
2 -10 -3 30.89 21.61
2 -10 -2 96.36 31.36
2 -10 -2 116.99 24.53
2 -10 -1 30.76 21.44
2 -10 -1 46.32 17.46
2 -10 0 133.52 27.76
2 -10 0 119.27 32
2 -10 1 107.55 32.81
2 -10 1 87.83 25.6
2 -10 2 78.12 26.45
2 -10 2 99.45 31.28
2 -10 3 268.34 45.47
2 -10 3 286.72 47.77
2 -10 4 87.02 31.25
2 -10 4 30.22 16.7
2 -10 5 386.3 54.85
2 -10 5 452.86 58.27
2 -10 6 166.31 38.36
2 -10 6 119.78 32.62
2 -10 7 147.02 37.07
2 -10 7 119.74 30.72
2 -10 8 93.28 28.26
2 -10 8 136.18 38.08
2 -10 9 144.02 34.49
2 -10 9 95.44 36.89
2 -10 10 219.88 50.03
2 -10 10 202.24 40.57
2 -10 11 1.34 28.39
2 -10 11 23.74 17.77
2 -10 12 309.03 61.88
2 -10 13 159.09 50.11
2 -10 14 387.27 69.91
2 -10 15 -2.62 20.85
2 -10 16 7.68 21.78
2 -9 -22 90.41 48.85
2 -9 -21 167.3 51.73
2 -9 -20 70.2 41.07
2 -9 -19 189.96 53.18
2 -9 -18 30.58 28.01
2 -9 -17 249.77 58.82
2 -9 -16 260.92 58.55
2 -9 -15 58.87 31.4
2 -9 -14 361.2 65.59
2 -9 -13 29.94 21.6
2 -9 -12 268.12 54.87
2 -9 -11 14.96 20.72
2 -9 -10 1267.82 114.75
2 -9 -9 378.6 62.29
2 -9 -8 352.88 61.18
2 -9 -7 1131.32 106.05
2 -9 -6 80.19 38.35
2 -9 -6 45.39 14.15
2 -9 -5 642.92 77.12
2 -9 -5 595.48 47.79
2 -9 -4 24.28 11.13
2 -9 -4 28.39 23.45
2 -9 -3 968.12 66.16
2 -9 -3 963.82 81.72
2 -9 -2 164.86 37.9
2 -9 -2 91.85 24.19
2 -9 -1 379.99 44.29
2 -9 -1 466.47 57.16
2 -9 0 682.13 60.35
2 -9 0 840.77 76.16
2 -9 1 153.75 31.43
2 -9 1 216.06 42.1
2 -9 2 354.63 49.29
2 -9 2 274.21 40.55
2 -9 3 374.8 51.78
2 -9 3 376.12 50.94
2 -9 4 923.61 80.37
2 -9 4 955.83 79.85
2 -9 5 34.78 23.31
2 -9 5 42.47 19.95
2 -9 6 726.44 70.86
2 -9 6 803.21 78.88
2 -9 7 578.51 69.79
2 -9 7 528.4 60.78
2 -9 8 158.96 39.42
2 -9 8 93.7 29.19
2 -9 9 277.28 44.25
2 -9 9 307.41 54.94
2 -9 10 16.85 18.7
2 -9 10 -4.38 18.25
2 -9 11 448.03 59.1
2 -9 11 462.41 67.57
2 -9 12 32.2 28.87
2 -9 12 25.47 21.5
2 -9 13 88.85 31.96
2 -9 14 149.07 45.38
2 -9 15 13.4 26.68
2 -9 16 315.99 66.47
2 -9 17 -8.55 23.24
2 -8 -22 115.88 47.7
2 -8 -21 -37.3 30.96
2 -8 -20 25.23 32.22
2 -8 -19 28.13 26.73
2 -8 -18 165.53 47.07
2 -8 -17 42.08 32.73
2 -8 -16 283.28 55.77
2 -8 -15 175.26 45.63
2 -8 -14 136.91 39.27
2 -8 -13 410.94 66.74
2 -8 -12 43.86 30.32
2 -8 -11 603.27 75.89
2 -8 -10 523.13 71.9
2 -8 -9 181.18 42.67
2 -8 -8 1689.54 122.12
2 -8 -7 26.85 27.93
2 -8 -6 1138.22 57.87
2 -8 -6 1226.63 101.61
2 -8 -5 139.81 22.97
2 -8 -5 194.98 42.46
2 -8 -4 302.38 52.47
2 -8 -4 276.23 31.91
2 -8 -4 283.55 42.94
2 -8 -3 1011.31 62.23
2 -8 -3 1005.15 80.87
2 -8 -2 575.21 48.66
2 -8 -2 672.78 65.19
2 -8 -1 990.04 65.78
2 -8 -1 1121.68 82.57
2 -8 0 395.7 44.6
2 -8 0 400.69 51.14
2 -8 1 540.36 51.8
2 -8 1 606.42 60.58
2 -8 2 5.25 12.69
2 -8 2 14.06 16.47
2 -8 3 1195.34 83.85
2 -8 3 1272.75 88.02
2 -8 4 404.44 51.66
2 -8 4 364.34 49.56
2 -8 5 892.2 77.48
2 -8 5 1116.08 83.21
2 -8 6 551.18 61.57
2 -8 6 479.38 55.15
2 -8 7 109.39 32.39
2 -8 7 61.62 24.87
2 -8 8 668.04 71.88
2 -8 8 696.48 67.73
2 -8 9 8.33 14.7
2 -8 9 36.64 20.94
2 -8 10 178.29 42.03
2 -8 11 375.91 59.1
2 -8 12 20.26 24.79
2 -8 13 415.02 63.6
2 -8 14 8.06 21.46
2 -8 15 -10.03 27.1
2 -8 16 24.31 27
2 -8 17 78.02 33.59
2 -8 18 2.47 24.65
2 -7 -23 245.69 60.69
2 -7 -22 -2.04 21.01
2 -7 -21 190.7 54.42
2 -7 -20 51.01 28.86
2 -7 -19 125.81 40.66
2 -7 -18 348.14 65.92
2 -7 -17 15.85 27.28
2 -7 -16 167.79 44.73
2 -7 -15 -11.2 23.65
2 -7 -14 14.86 18.61
2 -7 -13 268.94 51.13
2 -7 -12 380.16 60.5
2 -7 -11 624.23 75.54
2 -7 -10 372.85 57.33
2 -7 -9 922.96 86.48
2 -7 -8 41.28 23.61
2 -7 -7 223.13 43.44
2 -7 -6 764.4 76.67
2 -7 -5 131.31 19.73
2 -7 -5 120.55 29.13
2 -7 -5 142.39 37.83
2 -7 -4 832.85 78.78
2 -7 -4 691.7 44.17
2 -7 -4 777.65 67.78
2 -7 -3 173.68 34.04
2 -7 -3 165.38 23.33
2 -7 -3 136.73 33.42
2 -7 -2 494.61 52.97
2 -7 -2 460.83 40.05
2 -7 -1 36.99 17.52
2 -7 -1 33.61 12.91
2 -7 0 651.58 51.95
2 -7 0 635.65 58.85
2 -7 1 54.32 18.68
2 -7 1 55.45 20.82
2 -7 2 870.8 64.16
2 -7 2 910.85 70.52
2 -7 3 10.91 13.1
2 -7 3 23.91 18.28
2 -7 4 376.54 45.94
2 -7 4 402.59 46.6
2 -7 5 417.97 49.93
2 -7 5 455.12 50.48
2 -7 6 3.21 10.92
2 -7 6 2.65 13.92
2 -7 7 1051.33 82.91
2 -7 8 417.32 53.63
2 -7 9 595.31 68.1
2 -7 10 -0.16 16.57
2 -7 11 111.34 34.85
2 -7 12 49.63 25.86
2 -7 13 62.26 31.69
2 -7 14 314.67 58.09
2 -7 15 70.78 29.22
2 -7 16 379.29 64.49
2 -7 17 54.45 30.94
2 -7 18 42.7 25.29
2 -7 19 281.06 62.09
2 -7 20 19.15 27.45
2 -6 -24 105.34 44.26
2 -6 -23 -10.37 27.04
2 -6 -22 236.53 61.33
2 -6 -21 126.85 45.46
2 -6 -20 26.32 24.23
2 -6 -19 371.46 66.07
2 -6 -18 -27.79 30.3
2 -6 -17 317.15 58.8
2 -6 -16 70.54 29.95
2 -6 -15 563.83 72.11
2 -6 -14 310.5 53.6
2 -6 -13 166.08 40.15
2 -6 -12 172.49 41.1
2 -6 -11 56.78 23.7
2 -6 -11 41.13 12.27
2 -6 -10 397.29 54.9
2 -6 -10 305.62 28.35
2 -6 -9 83.25 28.51
2 -6 -8 2012.38 119.54
2 -6 -7 34.91 25.36
2 -6 -6 878.08 76.3
2 -6 -5 502.69 30.87
2 -6 -5 523.51 53.51
2 -6 -5 500.86 59.31
2 -6 -4 247.47 23.98
2 -6 -4 244.41 37.97
2 -6 -4 254.04 43.25
2 -6 -3 1772.34 95.58
2 -6 -3 1638.32 65.24
2 -6 -3 1777.69 107.89
2 -6 -2 26.85 15.4
2 -6 -2 29.55 16.53
2 -6 -2 31.5 21.7
2 -6 -1 1129.83 59.81
2 -6 -1 1271.17 78.83
2 -6 0 798.22 62.05
2 -6 0 800.51 53.86
2 -6 1 633.24 49.48
2 -6 1 600.26 53.11
2 -6 2 1053.08 65.38
2 -6 2 1202.4 76.11
2 -6 3 32.04 15.99
2 -6 3 45.29 16.86
2 -6 4 900.69 66.4
2 -6 4 740.25 60.17
2 -6 5 884.5 68
2 -6 6 1195.59 80.55
2 -6 7 372.05 48.6
2 -6 8 21.75 18.91
2 -6 9 108.8 30.05
2 -6 10 26.19 18.46
2 -6 11 687.65 72.11
2 -6 12 52.5 23.42
2 -6 13 502.31 66.41
2 -6 14 128.81 36.1
2 -6 15 207.45 48.49
2 -6 16 175.54 45.33
2 -6 17 43.88 23.64
2 -6 18 130.09 41.89
2 -6 19 -16.07 22.09
2 -6 20 111.64 41.74
2 -6 21 76.32 40.92
2 -5 -24 -7.5 33.71
2 -5 -23 24.84 25
2 -5 -22 165.92 47
2 -5 -21 -2.08 22.1
2 -5 -20 306.12 62.05
2 -5 -19 6.64 19.57
2 -5 -18 305.64 56.07
2 -5 -17 29.11 26.48
2 -5 -16 185.79 46.2
2 -5 -15 121.41 35.16
2 -5 -14 52.88 27.45
2 -5 -13 390.67 55.33
2 -5 -12 167.88 36.12
2 -5 -11 516.99 60.25
2 -5 -11 358.17 35.3
2 -5 -10 267.98 43.67
2 -5 -10 211.86 25.63
2 -5 -9 1379.76 93.25
2 -5 -9 1118.83 52.79
2 -5 -8 670.47 36.34
2 -5 -8 756.18 68.65
2 -5 -7 18.35 18.99
2 -5 -6 526.84 56.22
2 -5 -5 -1.12 12.95
2 -5 -5 49.88 25.27
2 -5 -4 121.46 26.14
2 -5 -4 102.57 13.34
2 -5 -4 143.24 31.31
2 -5 -3 1006.8 74.96
2 -5 -3 924.18 41.99
2 -5 -3 987.56 66.02
2 -5 -2 633.57 37.96
2 -5 -2 679.44 55.83
2 -5 -2 707.59 62.62
2 -5 -1 2096.01 77.22
2 -5 -1 2216.82 98.51
2 -5 0 1962.48 76.29
2 -5 0 1891.58 90.68
2 -5 1 15.37 11.34
2 -5 1 57.81 19.6
2 -5 2 82.72 19.68
2 -5 2 105.62 19.9
2 -5 3 14.32 14.32
2 -5 4 -1.43 10.99
2 -5 5 841.63 60.35
2 -5 6 277.94 36.45
2 -5 7 305.64 40.19
2 -5 8 1560.91 93.49
2 -5 9 209.72 34.66
2 -5 10 252.98 41.63
2 -5 11 54.05 20.85
2 -5 12 236.06 41.37
2 -5 13 13.62 15.79
2 -5 14 27.12 26.32
2 -5 15 200.26 43.67
2 -5 16 34.34 23.5
2 -5 17 253.51 51.96
2 -5 18 28.34 24.65
2 -5 19 202.35 50.87
2 -5 20 52.51 32.23
2 -5 21 30.62 34.55
2 -5 22 131.45 43.45
2 -4 -24 -39.24 32.08
2 -4 -23 45.77 28.77
2 -4 -22 14.99 23.43
2 -4 -21 247.71 57.34
2 -4 -20 19.16 25.35
2 -4 -19 184.98 47.91
2 -4 -18 85.98 31.55
2 -4 -17 73.54 30.84
2 -4 -16 116.02 36.26
2 -4 -15 -0.11 21.88
2 -4 -14 359.56 54.97
2 -4 -13 81.05 30.76
2 -4 -12 95.22 28.07
2 -4 -11 831.28 73.08
2 -4 -10 -3.94 13.37
2 -4 -10 10.24 9.07
2 -4 -9 470.34 34.63
2 -4 -9 418.06 48.88
2 -4 -8 73.37 23.76
2 -4 -8 50.6 11.76
2 -4 -7 465.55 28.49
2 -4 -7 535.8 52.66
2 -4 -6 708.06 30.21
2 -4 -6 804.76 64.56
2 -4 -5 3930.86 143.35
2 -4 -5 3581.3 127.06
2 -4 -4 3178.75 116
2 -4 -4 2980.51 61.22
2 -4 -4 3351.79 130.16
2 -4 -3 777.95 54.7
2 -4 -3 733.1 30.43
2 -4 -3 785.3 60.99
2 -4 -2 1737.21 56.23
2 -4 -2 1895.64 85.53
2 -4 -2 2004.97 98.68
2 -4 -1 26.43 15.02
2 -4 -1 15.89 12.65
2 -4 -1 14.23 10.02
2 -4 0 1017.06 60.59
2 -4 0 972.14 47.05
2 -4 1 713.48 51.45
2 -4 1 727.87 43.67
2 -4 2 5733.47 142.7
2 -4 3 328.33 35.24
2 -4 4 3141.65 111.29
2 -4 5 215.25 33.18
2 -4 6 270.01 36.42
2 -4 7 85.5 24.61
2 -4 8 90.7 25.46
2 -4 9 598.05 58.26
2 -4 10 122.94 26.41
2 -4 11 336.78 46.56
2 -4 12 429 54.21
2 -4 13 6.76 15.21
2 -4 14 241.25 44.07
2 -4 15 -20.35 23.09
2 -4 16 221.47 47.7
2 -4 17 26.58 24.94
2 -4 18 90.66 33.4
2 -4 19 81.94 33.35
2 -4 20 42.92 31.24
2 -4 21 106.54 39.01
2 -4 22 -24.94 30.87
2 -4 23 134.04 41.81
2 -3 -24 147.94 54.13
2 -3 -23 37.39 26.2
2 -3 -22 69.85 41.79
2 -3 -21 -14.12 21.98
2 -3 -20 288.76 63.45
2 -3 -19 285.39 60.1
2 -3 -18 363.2 62.43
2 -3 -17 267.68 52.62
2 -3 -16 23.15 24.42
2 -3 -15 317.06 52.58
2 -3 -14 18.12 19.07
2 -3 -13 235.94 42.37
2 -3 -12 265.24 42.9
2 -3 -11 670.82 63.71
2 -3 -10 591.56 43.71
2 -3 -10 656.17 60.6
2 -3 -9 28.97 16.63
2 -3 -9 25.43 12.05
2 -3 -8 2685.12 84.25
2 -3 -8 3075.23 124.83
2 -3 -7 30.11 11.07
2 -3 -7 25.3 18.15
2 -3 -6 868.66 34.97
2 -3 -6 917.95 63.53
2 -3 -5 78.6 17.87
2 -3 -5 69.5 18.15
2 -3 -5 70.28 8.43
2 -3 -4 28.23 10.49
2 -3 -4 20.54 11.03
2 -3 -3 3649.34 113.77
2 -3 -3 3525.37 122.58
2 -3 -2 19.73 12.13
2 -3 -2 31.05 6.97
2 -3 -2 39.46 17.64
2 -3 -1 5036.44 149.84
2 -3 -1 4996.35 98.75
2 -3 -1 5005.38 134.15
2 -3 0 303.24 23.46
2 -3 0 305.7 30.83
2 -3 1 4362.45 112.9
2 -3 1 4267.49 105.2
2 -3 2 559.28 35.59
2 -3 2 564.57 36.79
2 -3 3 146.38 18.69
2 -3 3 133.25 20.32
2 -3 4 47.19 12.2
2 -3 4 46.97 13.72
2 -3 5 631.59 36.29
2 -3 5 545.64 43.32
2 -3 6 4227.82 102.27
2 -3 6 4225.7 134.1
2 -3 7 31.15 9.87
2 -3 7 43.7 18.35
2 -3 8 1576.56 55.53
2 -3 8 1695.52 88.7
2 -3 9 864.35 65.49
2 -3 10 34.02 17.37
2 -3 11 598.05 58.63
2 -3 12 119.15 30.57
2 -3 13 490.99 57.06
2 -3 14 5.57 20.87
2 -3 15 221.41 42.29
2 -3 16 209.51 41.26
2 -3 17 155.22 39.68
2 -3 18 613.11 73.98
2 -3 19 70.4 37.29
2 -3 20 158.24 43.86
2 -3 21 -32.71 22.08
2 -3 22 160.74 45.01
2 -3 23 89.63 37.83
2 -2 -24 -14.11 34.26
2 -2 -23 93.7 40.19
2 -2 -22 116.21 47.57
2 -2 -21 34.87 28.01
2 -2 -20 151.11 46.28
2 -2 -19 10.58 22.11
2 -2 -18 129.73 40.85
2 -2 -17 10.32 26.61
2 -2 -16 298.5 52.78
2 -2 -15 416.62 60.29
2 -2 -14 651.15 70.54
2 -2 -13 1435.09 100.89
2 -2 -12 151 32.51
2 -2 -11 2126.17 112.38
2 -2 -10 212.01 35.2
2 -2 -9 235.37 26.43
2 -2 -9 206.76 33
2 -2 -8 1970.13 95.6
2 -2 -8 1928.47 71.48
2 -2 -7 385.94 41.47
2 -2 -7 373.03 27.98
2 -2 -6 2498.41 67.77
2 -2 -6 2446.53 99.23
2 -2 -5 557.02 25.63
2 -2 -5 592.21 45.81
2 -2 -4 410.75 33.7
2 -2 -4 424.39 17.63
2 -2 -4 415.07 37.74
2 -2 -3 784.54 50.41
2 -2 -3 798.38 46.01
2 -2 -2 157.03 19.98
2 -2 -2 154.91 22.68
2 -2 -1 8.92 8.29
2 -2 -1 15.17 12.53
2 -2 -1 9.75 8.31
2 -2 0 147.71 19.06
2 -2 0 109.18 14.57
2 -2 0 131.48 11.26
2 -2 0 113.03 19.92
2 -2 1 62.29 12.96
2 -2 1 63.88 12.58
2 -2 1 65.58 10.81
2 -2 2 563.82 32.07
2 -2 2 596.16 33.77
2 -2 3 816.66 38.86
2 -2 3 833.53 43.57
2 -2 4 206.29 24.42
2 -2 5 2647.77 92.35
2 -2 6 338.39 35.46
2 -2 7 1787.5 83.75
2 -2 8 217.28 32.66
2 -2 9 1.63 11.88
2 -2 10 1442.29 85.33
2 -2 11 132.04 30.23
2 -2 11 95.48 26
2 -2 12 1520.1 94.44
2 -2 12 1509.33 93.98
2 -2 13 218.21 38.14
2 -2 14 831.11 74.76
2 -2 15 202.7 40.75
2 -2 16 104.7 29.05
2 -2 17 76.36 27.83
2 -2 18 40.48 24.15
2 -2 19 145.05 39.96
2 -2 20 13.22 17.63
2 -2 21 169.78 43.03
2 -2 22 13.26 22.08
2 -2 23 82.2 36.9
2 -2 24 116.63 39.54
2 -1 -24 -5.59 25.85
2 -1 -23 216.65 62.17
2 -1 -22 -24.29 27.24
2 -1 -21 155.14 50.85
2 -1 -20 76.79 34.92
2 -1 -19 195.3 48.71
2 -1 -18 54.52 32.75
2 -1 -17 335.67 59.34
2 -1 -16 25.42 18.43
2 -1 -15 201.25 44.55
2 -1 -14 756.76 77.58
2 -1 -13 572.65 65.12
2 -1 -12 903.06 76.79
2 -1 -11 8.87 15.04
2 -1 -10 1595.14 93.67
2 -1 -9 1605.56 88.1
2 -1 -8 1548.48 66.49
2 -1 -8 1565.57 82.57
2 -1 -7 237.52 31.02
2 -1 -7 234.62 23.52
2 -1 -7 241.9 30.99
2 -1 -6 255.46 21.59
2 -1 -6 184.67 24.73
2 -1 -6 273.24 30.61
2 -1 -5 1805.73 47.9
2 -1 -5 1744.42 54.53
2 -1 -5 1720.24 76.18
2 -1 -5 1730.64 73.62
2 -1 -4 22.47 10.26
2 -1 -4 19.78 9.49
2 -1 -4 22.04 5.55
2 -1 -4 15.71 11.02
2 -1 -3 2543.54 74.88
2 -1 -3 2624.95 83.97
2 -1 -3 2731.66 88.34
2 -1 -2 799.22 40.18
2 -1 -2 733.7 36.91
2 -1 -2 815.08 42.85
2 -1 -2 716.47 39.59
2 -1 -1 121.83 17.21
2 -1 -1 158.96 17.29
2 -1 -1 143.16 18.25
2 -1 0 555.84 22.15
2 -1 0 555.33 29.98
2 -1 0 494.44 22.93
2 -1 0 530.57 34.01
2 -1 0 587.16 31.07
2 -1 1 247.06 18.91
2 -1 1 298.61 18.71
2 -1 2 1501.9 50.35
2 -1 2 1475.61 43.85
2 -1 3 896.94 42.22
2 -1 3 889.37 29.61
2 -1 4 2104.81 72.96
2 -1 5 22.29 10.15
2 -1 6 202.79 25.42
2 -1 7 1895.53 83.19
2 -1 8 121.03 25.72
2 -1 9 2673.99 110.07
2 -1 10 160.31 27.87
2 -1 11 229.98 34.51
2 -1 12 934.21 72.06
2 -1 13 113.73 30.24
2 -1 14 359.97 47.68
2 -1 15 32.13 22.09
2 -1 15 24.14 18.57
2 -1 16 483.05 59.43
2 -1 16 597.06 64.57
2 -1 17 50.39 24.99
2 -1 18 235.6 45.22
2 -1 19 470.7 65.07
2 -1 20 43.85 26.4
2 -1 21 174.71 44.93
2 -1 22 40.31 27.54
2 -1 23 90.77 35.46
2 -1 24 67.95 27.61
2 -1 25 -1.57 22.06
2 0 -24 162.76 55.12
2 0 -23 74.28 44.76
2 0 -22 81.4 45.99
2 0 -21 -10.56 34.85
2 0 -20 700.79 97.37
2 0 -19 147.54 47.74
2 0 -10 113.23 26.07
2 0 -9 700.78 54.5
2 0 -8 26.6 17.45
2 0 -7 566.81 36.23
2 0 -7 588.6 40.05
2 0 -7 486.86 40.64
2 0 -6 2926.29 82.09
2 0 -6 2811.49 97.62
2 0 -5 744.41 47.17
2 0 -5 953.51 52.29
2 0 -5 810.79 37.09
2 0 -4 7051.33 140.48
2 0 -4 7113.13 132.32
2 0 -4 7374.08 156.53
2 0 -4 7268.29 156.48
2 0 -3 8524.43 153.44
2 0 -3 8041.1 142.11
2 0 -3 8218.62 141.72
2 0 -3 8239.13 160.99
2 0 -2 52.08 9.51
2 0 -2 64.14 13.01
2 0 -2 65.42 12.24
2 0 -2 52.55 9.99
2 0 -1 376.68 22.36
2 0 -1 399.94 23.72
2 0 0 3.09 5.45
2 0 0 4.3 5.03
2 0 1 469.89 25.5
2 0 2 42.06 11.66
2 0 3 9949.04 184.22
2 0 4 5998.15 116.18
2 0 4 6053.4 137.6
2 0 5 974.39 40.64
2 0 5 1026.68 53.08
2 0 6 2193.26 83.44
2 0 6 2183.98 68.76
2 0 7 371.58 35.65
2 0 8 15.76 12.44
2 0 9 514.11 46.24
2 0 10 21.54 13.62
2 0 11 387.42 27.69
2 0 11 381.38 44.69
2 0 12 245.76 23.09
2 0 12 392.85 47.48
2 0 13 813.67 70.06
2 0 13 876.01 45.38
2 0 14 150.91 19.61
2 0 14 166.83 35.62
2 0 15 247.26 41.46
2 0 16 39.45 24.68
2 0 17 739.97 76.84
2 0 18 121.08 33.42
2 0 18 69.54 24.73
2 0 19 378.25 57.46
2 0 20 329.67 55.67
2 0 21 18.7 20.71
2 0 22 101.29 35.81
2 0 23 126.04 39.81
2 0 24 210.01 51.21
2 0 25 82.63 37.14
2 0 26 44.47 28.47
2 1 -24 -42.96 33.51
2 1 -23 110.35 44.58
2 1 -13 363.21 43.6
2 1 -12 158.47 30.4
2 1 -11 1069.41 69.58
2 1 -10 679.01 53.74
2 1 -9 650.34 50.12
2 1 -8 30.47 16.57
2 1 -7 433.2 35.26
2 1 -7 462.02 36.6
2 1 -6 100.43 17.16
2 1 -5 1038 40.02
2 1 -5 1054.07 48.76
2 1 -4 36.83 8.63
2 1 -4 53.36 11.75
2 1 -3 1504.34 53.67
2 1 -2 2217.16 65.31
2 1 -1 698.8 35.15
2 1 0 283.09 23.01
2 1 1 1523.76 52.37
2 1 2 132.78 16.52
2 1 3 1783.33 63.22
2 1 3 1839.82 64.35
2 1 4 777.58 42.42
2 1 4 756.34 41.23
2 1 5 810.27 45.04
2 1 5 794.87 46.76
2 1 6 47 13.88
2 1 6 35.77 10.12
2 1 7 387.89 36.28
2 1 8 329.94 35.72
2 1 9 12.48 16.56
2 1 10 1945.17 93.34
2 1 11 281.43 37.64
2 1 12 361.15 44.51
2 1 13 61.64 21.14
2 1 13 22.05 8.66
2 1 14 282.47 41.91
2 1 15 -17.27 18.61
2 1 16 425.5 54.37
2 1 17 154.41 35.9
2 1 18 95.93 30.78
2 1 19 189.73 40.88
2 1 20 8.09 19.74
2 1 20 71.52 31.78
2 1 21 545.43 71.43
2 1 22 13.36 18.76
2 1 23 186.01 46.18
2 1 24 2.67 24.37
2 1 25 -28.33 29.49
2 1 26 114.19 41.23
2 2 -14 848.38 65.25
2 2 -13 498.91 49.08
2 2 -12 78.85 20.9
2 2 -11 23.59 10.6
2 2 -10 314.07 34.89
2 2 -9 22.4 15.18
2 2 -6 662.58 28.37
2 2 -5 669.45 43.92
2 2 -4 988.84 51.18
2 2 -3 1593.29 63.68
2 2 -2 101.06 16.87
2 2 -2 103.38 11.53
2 2 -1 917.07 45.8
2 2 0 1262.37 54.99
2 2 1 651.33 40.06
2 2 1 568.13 34.92
2 2 2 437.44 31.54
2 2 2 446.13 36.03
2 2 2 441.27 33.03
2 2 3 5.18 8.56
2 2 3 7.55 10.77
2 2 4 3271.62 98.13
2 2 4 3367.05 108.5
2 2 5 490.47 37.19
2 2 5 506.74 41.43
2 2 6 256.99 29.66
2 2 6 230.36 30.31
2 2 7 1911.88 83.48
2 2 7 2025.63 93.06
2 2 8 33.35 16.65
2 2 9 1164.94 70.23
2 2 10 23.33 14.95
2 2 11 378 43.43
2 2 12 150.5 29.73
2 2 13 89.99 26.5
2 2 14 630.31 63.04
2 2 15 302.87 45.6
2 2 16 236.56 43.54
2 2 17 90.5 30.42
2 2 18 415.77 58.63
2 2 19 73.39 28.14
2 2 20 78.33 28.83
2 2 21 56.38 32.91
2 2 21 66.53 24.44
2 2 22 13.28 18.56
2 2 22 -8.73 17.41
2 2 23 89.37 33.4
2 2 24 -15.77 28.95
2 2 25 5.64 27.16
2 2 26 4.58 26.67
2 2 27 6.71 23.56
2 3 -16 181.25 31.68
2 3 -15 614.82 54.9
2 3 -14 126.84 25.83
2 3 -13 294.79 36.2
2 3 -12 60.76 16.74
2 3 -11 1002.47 59.96
2 3 -7 30.6 6.94
2 3 -3 451 36.69
2 3 -3 455.33 28.81
2 3 -2 155 21.86
2 3 -2 148.69 16.53
2 3 -2 142.31 10.63
2 3 -1 1112.46 55.73
2 3 0 159.85 21.47
2 3 1 734.33 45.3
2 3 1 643.59 48.04
2 3 1 674.04 31.66
2 3 2 50.09 18.18
2 3 2 35.05 12.98
2 3 2 31.78 11.07
2 3 2 30.33 7.72
2 3 3 1016.18 55.15
2 3 3 1017.95 52.7
2 3 3 1089.11 40.64
2 3 3 1023.89 61.75
2 3 4 62 11.17
2 3 4 78.87 16.81
2 3 4 60.74 12.5
2 3 4 95.89 23.19
2 3 5 930.97 53.19
2 3 5 987.8 65.18
2 3 6 336.89 33.76
2 3 6 369.74 42.2
2 3 7 968.27 59.5
2 3 7 1070.28 72.87
2 3 8 593.68 49.17
2 3 9 7.89 12.44
2 3 10 2121.03 100.03
2 3 11 724.84 59.24
2 3 12 833.89 65.35
2 3 13 181.52 32.07
2 3 14 239.47 38.42
2 3 15 76.08 25.56
2 3 16 203.2 38.87
2 3 17 474.19 60.52
2 3 18 249.09 45.66
2 3 19 605.06 72.87
2 3 20 181.53 43.36
2 3 21 198.9 47.67
2 3 22 50.31 29.59
2 3 23 50.16 29.9
2 3 23 14.63 21.62
2 3 24 182.84 43.57
2 3 25 -38.5 24.97
2 4 -16 613.7 56.97
2 4 -15 128.16 28.45
2 4 -14 478.98 46.45
2 4 -13 78.33 20.16
2 4 -4 2333.86 80.15
2 4 -3 667.28 41.01
2 4 -2 2671.19 84.21
2 4 -2 2532.07 65.5
2 4 -1 24.52 9.09
2 4 0 167.37 24.48
2 4 1 32.53 13.48
2 4 1 49.34 19
2 4 1 63.57 14
2 4 2 933.95 56.46
2 4 2 842.68 44.38
2 4 2 925.15 64.3
2 4 3 218.69 27.22
2 4 3 211.79 29.12
2 4 3 180.8 20.82
2 4 3 194.49 30.9
2 4 4 1603.2 72.92
2 4 4 1564.52 75.41
2 4 4 1464.01 85.24
2 4 4 1509.91 61.66
2 4 5 3903.35 110.12
2 4 5 3730.84 119.41
2 4 5 3788.19 145.75
2 4 6 328.18 35.6
2 4 6 307.63 44.66
2 4 6 290.62 30.87
2 4 7 2442.59 99.13
2 4 7 2396.86 120.2
2 4 8 115.23 22.62
2 4 8 73.81 22.83
2 4 9 1352.42 77.74
2 4 10 266.34 36.18
2 4 11 237.47 36.24
2 4 12 1022.18 74.66
2 4 13 6.61 14.23
2 4 14 318.2 44.96
2 4 15 301.55 45.95
2 4 16 537.62 61.44
2 4 17 67.42 26.53
2 4 18 235.69 46.53
2 4 19 54.65 28.08
2 4 20 -3.66 18.13
2 4 21 427.21 67.41
2 4 22 4.03 20.04
2 4 23 167.09 42.78
2 4 24 98.03 35.35
2 4 24 104.9 33.2
2 4 25 81.11 35.47
2 5 -15 420.75 44.82
2 5 -14 64.31 20.73
2 5 -4 452.56 38.52
2 5 -3 1338.82 65.45
2 5 -2 33.12 14.92
2 5 -2 11.84 8.55
2 5 -1 2246.21 73.45
2 5 0 -3.9 17.38
2 5 0 10.45 9.27
2 5 1 265.36 27.05
2 5 1 251.3 36.77
2 5 1 261.28 28.5
2 5 2 1847.78 77.25
2 5 2 1921.06 101.82
2 5 3 33.57 16.36
2 5 3 23.16 15.82
2 5 3 7.14 10.89
2 5 4 1430.53 72.63
2 5 4 1388.78 89.99
2 5 4 1447.64 67.58
2 5 5 1077.01 63.87
2 5 5 1073.56 81.18
2 5 5 1072.19 59.14
2 5 6 581.35 45.46
2 5 6 567.93 47.8
2 5 6 544.86 59.4
2 5 7 -5.79 12.65
2 5 7 33.88 25.52
2 5 8 813.53 59.49
2 5 8 792.97 74.79
2 5 9 1856.37 92.48
2 5 9 1825.74 116.22
2 5 10 218.53 43.67
2 5 10 178.6 32.56
2 5 11 705.67 61.35
2 5 12 10.53 14.59
2 5 13 438.62 51.54
2 5 14 14.85 14.69
2 5 15 391.12 52.5
2 5 16 94.4 29.27
2 5 17 4.74 18.46
2 5 18 420.97 59.11
2 5 19 -21.18 15.98
2 5 20 166.13 40.76
2 5 21 29.79 23.48
2 5 22 183.9 45.16
2 5 23 -21.07 28.08
2 5 24 17.53 20.63
2 5 25 66.65 31.93
2 6 -5 360.38 38.99
2 6 -4 2375.52 98.71
2 6 -3 224.29 29.95
2 6 -2 480.3 35.93
2 6 -2 525.87 44.16
2 6 -1 360.16 31.77
2 6 0 24.79 12.8
2 6 0 15.14 16.76
2 6 1 887.31 73.41
2 6 2 498.61 58.86
2 6 3 264.76 43.97
2 6 4 78.21 26.79
2 6 4 64.1 18.04
2 6 5 920.81 62.56
2 6 5 950.47 83.3
2 6 6 2260.58 101.95
2 6 6 2241.15 130
2 6 7 478.34 47.65
2 6 7 469.37 62.2
2 6 8 459.04 47.57
2 6 8 501.64 64.07
2 6 9 6.4 12.56
2 6 9 21.03 16.75
2 6 10 107.2 29.79
2 6 10 139.57 28.62
2 6 11 85.99 23.31
2 6 11 71.88 32.41
2 6 12 635.88 78.13
2 6 12 642.56 61.79
2 6 13 283.24 43.7
2 6 14 385.32 50.78
2 6 15 777.96 72.84
2 6 16 384.23 54.91
2 6 17 191.93 41.66
2 6 18 98.05 30.77
2 6 19 346.25 55.1
2 6 20 55.81 30.26
2 6 21 156.43 44.18
2 6 22 131.26 41.01
2 6 22 130.58 50.64
2 6 23 30.98 25.07
2 6 23 -29.1 34.55
2 6 24 120.33 48.83
2 6 24 71.4 29.9
2 6 25 -31.73 31.74
2 6 26 36.11 24.52
2 7 -5 950.74 66.34
2 7 -4 16.85 14.56
2 7 -3 806.9 60.46
2 7 -2 1112.35 69.9
2 7 0 3320.23 155.72
2 7 1 26.31 20.03
2 7 2 3973.41 173.21
2 7 3 564.19 66.93
2 7 4 1704.68 86.89
2 7 4 1545.93 110.1
2 7 5 915.89 65.25
2 7 5 944.67 86.69
2 7 6 81.46 21.23
2 7 6 99.16 30.14
2 7 7 1013.58 70.7
2 7 7 960.57 89.51
2 7 8 1.22 20.08
2 7 8 14.93 13.55
2 7 9 1027.24 73.75
2 7 9 936.21 93.62
2 7 10 110.7 27.39
2 7 10 69.9 31.21
2 7 11 1418.08 89.63
2 7 11 1320.77 116.42
2 7 12 265.27 42.59
2 7 12 333.36 60.94
2 7 13 317.35 60.85
2 7 13 380.01 49.37
2 7 14 59.44 21.67
2 7 14 4.72 28.09
2 7 15 -12.95 18.76
2 7 15 75.02 34.41
2 7 16 336.32 51.11
2 7 16 268.98 59.39
2 7 17 -19.75 14.99
2 7 17 -5.64 25.46
2 7 18 174.68 40.9
2 7 18 211.95 56.69
2 7 19 128.62 36.44
2 7 19 125.2 47.89
2 7 20 -6.11 18.78
2 7 20 155.75 50.31
2 7 21 150.6 43.67
2 7 21 149.19 52.56
2 7 22 -10.8 19.5
2 7 22 9.97 28.55
2 7 23 148.04 55.35
2 7 23 109.62 36.43
2 7 24 -44.44 32.67
2 7 24 22.52 22.08
2 7 25 52.8 36.81
2 8 -5 247.93 38.9
2 8 -4 47.45 19.11
2 8 -3 620.05 57.18
2 8 -2 45.93 22.2
2 8 -1 1206.27 78.4
2 8 0 43.08 25.42
2 8 1 689.75 75.68
2 8 2 363.18 55.6
2 8 3 275.08 48.65
2 8 4 917.39 67.58
2 8 4 875.2 86.96
2 8 5 517.74 52.15
2 8 5 497.57 66.87
2 8 6 380.81 46.1
2 8 6 309.26 54.28
2 8 7 39.74 19.7
2 8 7 45.22 28.66
2 8 8 454.32 68.39
2 8 8 386.39 47.02
2 8 9 12.01 13.26
2 8 9 9.23 20.19
2 8 10 302.91 43.05
2 8 10 253.82 54.09
2 8 11 5.22 14.09
2 8 11 11.08 20.95
2 8 12 2.82 24.06
2 8 12 7.79 14.68
2 8 13 288.38 46.27
2 8 13 394.87 72.11
2 8 14 85.18 26.9
2 8 14 129.08 43.83
2 8 15 243.19 45.26
2 8 15 238.15 55.28
2 8 16 63.71 26.28
2 8 16 39.72 23.94
2 8 17 139.04 38.14
2 8 17 88.47 40.39
2 8 18 112.3 34.44
2 8 18 126.4 41.92
2 8 19 0.14 15.34
2 8 19 9.16 33.9
2 8 20 149.59 41.38
2 8 20 251.85 64.01
2 8 21 4.78 24
2 8 21 20.06 22.15
2 8 22 297.94 55.56
2 8 22 258.78 68.1
2 8 23 62.22 44.97
2 8 24 106.73 51.47
2 8 25 0.81 35.63
2 9 -5 464.23 52.51
2 9 -4 764.42 68.6
2 9 -3 64.79 24.36
2 9 -2 108.91 25.39
2 9 -1 228.02 37.18
2 9 0 430.93 65.05
2 9 1 2561.75 153.71
2 9 2 1771.42 129.05
2 9 3 912.04 93.95
2 9 4 191.08 33.41
2 9 4 196.99 49.43
2 9 5 82.11 24.93
2 9 5 51.46 27.17
2 9 6 108.99 32.8
2 9 6 147.95 30.09
2 9 7 761.95 88.87
2 9 7 781.61 68.58
2 9 8 608.15 60.77
2 9 8 579.35 81.23
2 9 9 295.61 61.64
2 9 9 278.43 42.89
2 9 10 1828.1 108.21
2 9 10 1668.29 138.34
2 9 11 13.45 13.12
2 9 11 6.61 20.22
2 9 12 197.84 38.21
2 9 12 191.28 50.96
2 9 13 103.12 35.7
2 9 13 67.58 27.71
2 9 14 15.31 23.69
2 9 14 62.24 25.15
2 9 15 -15.31 16.26
2 9 15 25.03 24.58
2 9 16 101.15 33.67
2 9 16 126.44 44.68
2 9 17 206.15 40.89
2 9 17 145.92 53.88
2 9 18 -34.28 23.29
2 9 18 -17.01 28.14
2 9 19 249.47 48.81
2 9 19 153.57 53.85
2 9 20 -10.15 22.85
2 9 20 12.26 25.66
2 9 21 85.33 42.84
2 9 22 85.21 47.19
2 9 23 15.17 29.74
2 9 24 100.97 52.42
2 10 -5 309.3 47.44
2 10 -4 104.82 31.37
2 10 -3 474.01 57.96
2 10 -2 453.24 56.5
2 10 -1 132.71 34.04
2 10 0 321.44 47.44
2 10 1 0.45 19.85
2 10 2 64.84 30.84
2 10 3 24.96 24.84
2 10 4 492.52 74.22
2 10 4 556.61 58.66
2 10 5 59.25 33.68
2 10 5 84.99 27.28
2 10 6 504.01 76.88
2 10 6 629.52 62.64
2 10 7 256.46 43.53
2 10 7 239.2 53.03
2 10 8 219.68 40.31
2 10 8 259.52 56.37
2 10 9 328.6 67.39
2 10 9 377.97 52.03
2 10 10 36.89 23.53
2 10 10 1.44 25.3
2 10 11 1272.2 93.88
2 10 11 1137.12 120.76
2 10 12 56.6 26.49
2 10 12 36.88 28.97
2 10 13 515.06 87.93
2 10 13 575.64 66.36
2 10 14 294.92 71.51
2 10 14 215.92 45.03
2 10 15 55.07 26.4
2 10 15 117.49 47.55
2 10 16 326.88 53.02
2 10 16 302.51 74.18
2 10 17 26.35 21.06
2 10 17 28.24 39.19
2 10 18 218.09 69.88
2 10 19 87.32 42.38
2 10 20 117.18 57.38
2 10 21 4.49 25.09
2 10 22 -7.22 34.11
2 11 -5 39.26 24.67
2 11 -4 611.81 69.12
2 11 -3 208.75 42.38
2 11 -2 66.03 30.23
2 11 -1 1133.25 91.92
2 11 0 277.53 51.72
2 11 1 753.78 75.05
2 11 1 766.53 93.95
2 11 2 37.74 18.21
2 11 3 663.95 88
2 11 4 178.82 36.84
2 11 4 239.79 58.85
2 11 5 853.92 75.46
2 11 5 872.35 104.7
2 11 6 244.5 42.4
2 11 6 183.69 50.3
2 11 7 5.26 14.48
2 11 7 -37.76 29.28
2 11 8 1014.54 84.25
2 11 8 807.4 104.59
2 11 9 124.49 48.34
2 11 9 127.24 33.07
2 11 10 749.9 74.86
2 11 10 709.66 102.83
2 11 11 307.43 49.63
2 11 11 332.76 67.99
2 11 12 114.29 32.52
2 11 12 109.45 46.28
2 11 13 232.28 45.85
2 11 13 96.27 47.21
2 11 14 -0.24 14.75
2 11 14 1.05 33.42
2 11 15 129.06 52.19
2 11 16 143.64 54.46
2 11 17 135.46 52.95
2 11 18 83.11 44.01
2 11 19 92.17 46.32
2 11 20 83.79 45.29
2 12 -5 201.31 44.05
2 12 -4 485.01 65.41
2 12 -3 159.19 45.24
2 12 -2 805.36 83.35
2 12 -1 144.16 41.73
2 12 0 675.12 75.32
2 12 1 214.25 56.76
2 12 1 481.17 64.48
2 12 2 617.17 73.17
2 12 2 513.19 79.82
2 12 3 417.14 75.75
2 12 4 342.68 69.16
2 12 4 438.8 59.06
2 12 5 854.77 78.24
2 12 5 864.31 108.47
2 12 6 126.78 38.83
2 12 6 49.33 41.71
2 12 7 830.93 78.81
2 12 7 740.53 103.29
2 12 8 162.04 39.83
2 12 8 116.72 46.43
2 12 9 339.02 53.54
2 12 9 263.55 62.6
2 12 10 174.29 54.92
2 12 10 201.98 40.89
2 12 11 24.67 21.96
2 12 11 -15.8 24.72
2 12 12 189.39 53.86
2 12 13 26.53 24.25
2 12 14 239.83 70.39
2 12 15 13.99 33.81
2 12 16 188.99 60.77
2 12 17 96.04 50.44
2 12 18 121.07 56.07
2 13 -4 24.16 24.08
2 13 -3 191 43.86
2 13 -2 53.73 29.8
2 13 -1 444.65 66.64
2 13 0 169.81 46.15
2 13 1 170.69 44.62
2 13 2 139.99 46.83
2 13 2 311.22 57.83
2 13 3 30.65 25.72
2 13 3 19.03 22.15
2 13 4 215.89 40.17
2 13 4 231.19 56.8
2 13 5 117.21 43.39
2 13 5 190.8 41.15
2 13 6 318.85 73.26
2 13 6 323.27 50.16
2 13 7 213.44 44.42
2 13 7 152.51 48.76
2 13 8 61.92 25.28
2 13 8 112.67 43.18
2 13 9 223.71 62.83
2 13 10 79.92 40.53
2 13 11 528.54 92.97
2 13 12 -26.31 42.82
2 13 13 147.44 57.96
2 13 14 185.99 62.7
2 13 15 21.25 31.49
2 13 16 79.66 47.48
2 14 -4 177.96 47.04
2 14 -3 75.75 31.87
2 14 -2 210.43 48.46
2 14 -1 329.1 58.7
2 14 0 115.1 45.15
2 14 1 255.53 51.55
2 14 2 87.59 32.69
2 14 3 181.54 37.93
2 14 3 125.22 48.55
2 14 3 182.92 46.99
2 14 4 124.8 40.84
2 14 4 69.31 39.79
2 14 4 71.29 27.8
2 14 5 277.63 69.32
2 14 6 263.05 67.18
2 14 7 128.55 57.74
2 14 8 293.77 71.38
2 14 9 -23.71 33.62
2 14 10 163.67 51.26
2 14 11 14.97 35.91
2 14 12 135.89 60.35
2 14 13 144.87 59.48
2 14 14 74.09 54.68
2 15 -3 230.72 58.99
2 15 -2 176.24 47.63
2 15 -1 65.02 31.41
2 15 0 329.06 62
2 15 1 105.5 43.22
2 15 2 203.35 50.6
2 15 3 167.2 47.8
2 15 4 120.19 42.65
2 15 4 47.13 40.02
2 15 5 283.66 57.5
2 15 5 225.1 61.08
2 15 6 87 50.14
2 15 6 125.44 42.7
2 15 7 171.87 56.71
2 15 8 100.55 48.52
2 15 9 287.75 79.89
2 15 10 6 49.27
2 15 11 -25.43 27.01
2 16 5 28.96 28.33
2 16 6 142.88 58.89
2 16 7 57.81 36.36
3 -15 2 46.85 31.33
3 -15 3 167.74 46.94
3 -14 0 115.37 39.92
3 -14 1 21.29 21.63
3 -14 2 191.54 46.88
3 -14 3 56.13 31.19
3 -14 4 91.81 34.54
3 -14 5 107.83 36.38
3 -14 7 103.78 40.43
3 -14 8 21.21 22.03
3 -14 9 -25.17 34.64
3 -13 -14 63.64 43.27
3 -13 -13 273 68.27
3 -13 -12 22.7 33.66
3 -13 -11 116.09 44.99
3 -13 -2 102.03 35.3
3 -13 -1 344.9 62.68
3 -13 0 3.81 19.05
3 -13 1 181.89 47.12
3 -13 2 88.11 34.01
3 -13 3 202.08 49.16
3 -13 4 37.29 25.36
3 -13 4 58.01 29.13
3 -13 5 4.96 18.61
3 -13 5 13.15 22.21
3 -13 6 149.5 45.9
3 -13 6 138.42 40.89
3 -13 7 3.43 16.86
3 -13 7 -3.19 21.17
3 -13 8 176.5 49.58
3 -13 9 79.57 34.97
3 -13 10 103.03 45.44
3 -12 -16 77.16 37.08
3 -12 -15 41.04 32.07
3 -12 -14 220.07 61.81
3 -12 -13 82.52 34.63
3 -12 -12 -17.07 26.93
3 -12 -11 296.07 67.19
3 -12 -10 62.39 48.49
3 -12 -9 471.19 82.05
3 -12 -3 80.93 34.22
3 -12 -2 358.42 61.37
3 -12 -1 1.69 17.49
3 -12 0 393.27 63.85
3 -12 1 200.34 39.3
3 -12 1 258.15 52.79
3 -12 2 192.96 48.35
3 -12 2 139.92 39.89
3 -12 3 381.51 59.06
3 -12 3 559.73 76.27
3 -12 4 36.5 28.6
3 -12 4 29.39 26.37
3 -12 5 287.5 53.66
3 -12 5 351.14 60.64
3 -12 6 -4.57 19.7
3 -12 6 21.65 23.63
3 -12 7 152.06 44.9
3 -12 7 172.05 42.74
3 -12 8 81.28 30.55
3 -12 8 64.19 29.37
3 -12 9 40.05 31.21
3 -12 9 27.73 16.6
3 -12 10 73.57 28.34
3 -12 11 28.28 38.68
3 -12 12 32.8 22.95
3 -11 -18 -64.89 38.62
3 -11 -17 170.02 56.55
3 -11 -16 -45.24 38.88
3 -11 -15 -28.51 36.11
3 -11 -14 186.39 53.51
3 -11 -13 72.8 38.8
3 -11 -12 695.63 102.68
3 -11 -11 43.56 41.3
3 -11 -10 548.89 87.18
3 -11 -9 61.97 36.48
3 -11 -8 62.15 37.35
3 -11 -7 490.55 79.41
3 -11 -4 38.75 23.79
3 -11 -3 170.96 39.22
3 -11 -2 59.3 19.92
3 -11 -2 64.53 29.78
3 -11 -1 164.46 34.3
3 -11 -1 180.23 43.76
3 -11 0 149.66 32.68
3 -11 0 201.03 46.03
3 -11 1 256.28 48.68
3 -11 1 272.05 44.05
3 -11 2 157.75 35.96
3 -11 2 205.93 46.17
3 -11 3 149.85 38.46
3 -11 3 102.44 32.57
3 -11 4 190.76 46.01
3 -11 4 108.16 31.42
3 -11 5 80.97 33.09
3 -11 5 46.63 22.1
3 -11 6 396.39 60.96
3 -11 6 359.96 59.74
3 -11 7 225.36 44.63
3 -11 7 237.76 47.5
3 -11 8 152.36 39.53
3 -11 8 149.98 41.74
3 -11 9 295.97 53.85
3 -11 9 233.78 53.23
3 -11 10 1.32 21.02
3 -11 10 -42.3 23.62
3 -11 11 114.44 34.66
3 -11 11 104.97 31.37
3 -11 12 -5.04 32.17
3 -11 13 133.7 48.33
3 -11 14 48.36 39.09
3 -10 -20 161.44 55.33
3 -10 -19 -55.63 38.76
3 -10 -18 50.15 30.6
3 -10 -17 -19.88 24.73
3 -10 -16 122.87 42.01
3 -10 -15 157.1 49.7
3 -10 -14 85.38 36.68
3 -10 -13 325.68 70.07
3 -10 -12 12.28 24.29
3 -10 -11 368.74 69.46
3 -10 -10 94.85 43.2
3 -10 -9 322.45 65.4
3 -10 -8 1418.31 129.5
3 -10 -7 148 54.8
3 -10 -6 1197.05 114.21
3 -10 -5 152.55 39.76
3 -10 -4 410.07 44
3 -10 -4 509.56 65.06
3 -10 -3 326.99 38.88
3 -10 -3 416.6 61.69
3 -10 -2 424.85 46.61
3 -10 -2 488.25 65.46
3 -10 -1 479.47 64.07
3 -10 -1 394.51 44.75
3 -10 0 138.9 32.95
3 -10 0 160.79 41.93
3 -10 1 678.17 64.66
3 -10 1 739.42 78.46
3 -10 2 57.66 29.08
3 -10 2 66.87 32.9
3 -10 3 1461.02 102.87
3 -10 3 1635.59 115.05
3 -10 4 176.96 39.4
3 -10 4 181.69 40.16
3 -10 5 566.97 67.92
3 -10 5 566.36 67.96
3 -10 6 236.56 46.42
3 -10 6 186.96 44.52
3 -10 7 0.96 18.37
3 -10 7 -8.87 17.94
3 -10 8 409.75 63.05
3 -10 8 472.92 61.64
3 -10 9 4.34 15.05
3 -10 9 -62.77 30.2
3 -10 10 184.9 41.15
3 -10 10 169.54 47.66
3 -10 11 186.28 44.06
3 -10 11 175.8 42.06
3 -10 12 59.31 25.93
3 -10 12 89.82 38.23
3 -10 13 99.19 37.56
3 -10 14 13.92 21.96
3 -10 15 36.46 29.03
3 -9 -21 230.06 64.39
3 -9 -20 39.54 22.93
3 -9 -19 137.73 49.65
3 -9 -18 138.42 49.68
3 -9 -17 39.16 24.12
3 -9 -16 201.92 55.61
3 -9 -15 -33.89 26
3 -9 -14 274.42 60.67
3 -9 -13 136.89 40.92
3 -9 -12 349.63 65.35
3 -9 -11 273.25 56.98
3 -9 -10 168.36 47.43
3 -9 -9 154.2 44.64
3 -9 -8 138.46 41.48
3 -9 -7 237.15 51.37
3 -9 -6 50.98 33.77
3 -9 -5 166.33 25.03
3 -9 -5 182.93 43.07
3 -9 -4 433.77 41.12
3 -9 -4 569.55 67.83
3 -9 -3 398.95 41.85
3 -9 -3 427.94 58.92
3 -9 -2 382.16 42.26
3 -9 -2 489.42 62.5
3 -9 -1 64.45 23.09
3 -9 -1 73.66 29.13
3 -9 0 1021.73 86.78
3 -9 0 910.75 69.82
3 -9 1 34.81 23.78
3 -9 1 31.92 21.19
3 -9 2 263.18 40.61
3 -9 2 212.45 41.92
3 -9 3 255.73 43.29
3 -9 3 211.56 37.21
3 -9 4 26.95 24.48
3 -9 4 42.14 22.55
3 -9 5 441.48 57.59
3 -9 5 338.29 50.6
3 -9 6 57.03 24.3
3 -9 6 60.13 23.29
3 -9 7 355.34 54.16
3 -9 7 403.21 59.75
3 -9 8 63.72 28.56
3 -9 8 9.48 20.19
3 -9 9 402.6 63.7
3 -9 9 412.95 59.54
3 -9 10 119.53 39.47
3 -9 10 70.8 27.3
3 -9 11 73.93 28.75
3 -9 11 103.32 35.83
3 -9 12 67 30.36
3 -9 13 2.11 23.79
3 -9 14 232.61 52.2
3 -9 15 -9.4 22.31
3 -9 16 177.76 51.13
3 -9 17 -7.78 33.46
3 -8 -22 230.82 60.9
3 -8 -21 83.42 41.3
3 -8 -20 -28.3 22.78
3 -8 -19 318.96 66.68
3 -8 -18 23.17 28.29
3 -8 -17 163.02 45.85
3 -8 -16 21.38 19.25
3 -8 -15 182.36 47.42
3 -8 -14 79.54 32.35
3 -8 -13 161.71 46.44
3 -8 -12 427.55 68.94
3 -8 -11 41.15 29.93
3 -8 -10 1091.06 103.96
3 -8 -9 194.3 48.69
3 -8 -8 1507.75 121.45
3 -8 -7 490.44 73.61
3 -8 -6 1424.08 103.86
3 -8 -6 1490.06 118.64
3 -8 -5 1739.73 70.22
3 -8 -5 1964.89 120.3
3 -8 -5 1958.05 133.48
3 -8 -4 228.79 27.01
3 -8 -4 226.41 48.45
3 -8 -4 177.47 38.11
3 -8 -3 783 51.76
3 -8 -3 847.99 77.22
3 -8 -2 29.31 13.83
3 -8 -2 -5.41 12.81
3 -8 -1 385.81 40.78
3 -8 -1 431.65 53.72
3 -8 0 448.97 45.33
3 -8 0 570.07 62.71
3 -8 1 1366.17 83.27
3 -8 1 1440.49 98.46
3 -8 2 1405.36 87.49
3 -8 2 1496.09 100.49
3 -8 3 569.19 57.96
3 -8 3 494.32 59.25
3 -8 4 1789.63 106.02
3 -8 4 2021.18 116.63
3 -8 5 169.25 38.19
3 -8 5 85.95 24
3 -8 6 846.52 77.34
3 -8 6 828.7 77.49
3 -8 7 367.7 54.6
3 -8 7 377.8 52.27
3 -8 8 509.88 63.03
3 -8 8 481.79 59.54
3 -8 9 226.92 44.14
3 -8 10 33.37 23.84
3 -8 11 245.38 49.92
3 -8 12 39.84 28.53
3 -8 13 78.29 36.38
3 -8 14 -26.44 29.32
3 -8 15 177.83 46.06
3 -8 16 45.22 24.08
3 -8 17 68.56 34.65
3 -8 18 236.35 58.56
3 -7 -22 28.81 25.46
3 -7 -21 129.23 47.54
3 -7 -20 346.96 68.9
3 -7 -19 -6.12 22.88
3 -7 -18 463.4 76.93
3 -7 -17 75.61 35.7
3 -7 -16 150.8 45.38
3 -7 -15 67.44 31.27
3 -7 -14 29.15 23.14
3 -7 -13 208.3 49.87
3 -7 -12 -4.23 18.26
3 -7 -11 414.31 60.83
3 -7 -10 173.74 41.38
3 -7 -9 1028.91 94.29
3 -7 -8 708.48 79.34
3 -7 -7 30.4 24.59
3 -7 -6 913.9 78.73
3 -7 -6 956.57 89.78
3 -7 -5 36.04 25.71
3 -7 -5 11 6.55
3 -7 -5 6.55 13.66
3 -7 -4 213.58 45.32
3 -7 -4 232.66 39.66
3 -7 -4 186.88 21.62
3 -7 -3 829.39 82.08
3 -7 -3 792.75 47.97
3 -7 -3 881.87 74.53
3 -7 -2 3032.24 140.17
3 -7 -2 2790.3 99.34
3 -7 -1 1295.77 69.66
3 -7 -1 1399.18 93.77
3 -7 0 1624.94 99.43
3 -7 0 1561.49 80.49
3 -7 1 148.55 30.88
3 -7 1 151.81 29.05
3 -7 2 36.61 16.77
3 -7 2 64.04 26.18
3 -7 3 732.74 61.07
3 -7 3 753.41 67.93
3 -7 4 119.94 30.64
3 -7 4 111.51 29.18
3 -7 5 880.08 74.7
3 -7 5 964.66 76.26
3 -7 6 311.51 45.87
3 -7 7 360.54 48.63
3 -7 8 326 50.6
3 -7 9 30.19 24.03
3 -7 10 303.54 50.68
3 -7 11 36.28 25.88
3 -7 12 179.82 43.75
3 -7 13 108.53 33.24
3 -7 14 109.88 37.39
3 -7 15 264.25 52.18
3 -7 16 26.09 20.97
3 -7 17 126.24 33.78
3 -7 18 34.88 30.27
3 -7 19 58.01 27.42
3 -6 -23 99.24 46.33
3 -6 -22 6.91 23.88
3 -6 -21 129.69 42.97
3 -6 -20 43 34.49
3 -6 -19 173.1 49.84
3 -6 -18 -32.51 23.75
3 -6 -17 102.06 35.06
3 -6 -16 244.08 51.66
3 -6 -15 169.28 42.51
3 -6 -14 260.34 53.09
3 -6 -13 -5.43 18.09
3 -6 -12 135.91 36.14
3 -6 -11 77.51 24.81
3 -6 -10 63.55 28.6
3 -6 -9 931.78 85.09
3 -6 -8 106.98 31.48
3 -6 -7 815.13 76.89
3 -6 -6 286.57 41.49
3 -6 -6 279.18 47.37
3 -6 -5 308.75 19.89
3 -6 -5 348.42 46.12
3 -6 -5 326.26 49.23
3 -6 -4 17.67 13.2
3 -6 -4 21.59 10.2
3 -6 -4 28.56 23.16
3 -6 -3 351.1 27.73
3 -6 -3 375.77 47.52
3 -6 -3 437.13 56.26
3 -6 -2 73.04 15.35
3 -6 -2 84.26 22.99
3 -6 -2 89.76 28.67
3 -6 -1 25.87 14.76
3 -6 -1 6.43 8.87
3 -6 0 391.25 37.84
3 -6 0 415.62 47.24
3 -6 1 149.61 29.11
3 -6 1 107.96 19.7
3 -6 2 419.22 40.89
3 -6 2 454.08 50.48
3 -6 3 75.58 23.37
3 -6 3 87.91 20.94
3 -6 4 329.09 39.37
3 -6 5 298.25 39.83
3 -6 6 438.69 49.86
3 -6 7 341.6 45.39
3 -6 8 21.93 13.05
3 -6 9 280.12 45
3 -6 10 46.92 25.25
3 -6 11 76.54 28.29
3 -6 12 196.25 40.5
3 -6 13 58.13 25.87
3 -6 14 295.71 54.68
3 -6 15 70.5 33.63
3 -6 16 114.12 36.4
3 -6 17 75.32 33.93
3 -6 18 201.82 50.55
3 -6 19 106 41.76
3 -6 20 16.13 26.13
3 -5 -23 49.35 34.66
3 -5 -22 100.9 43.03
3 -5 -21 -11.6 24.21
3 -5 -20 111.46 41.68
3 -5 -19 141.68 45.49
3 -5 -18 10.94 20.41
3 -5 -17 304.64 57.66
3 -5 -16 -42.78 31.29
3 -5 -15 293.34 52.02
3 -5 -14 7.28 16.12
3 -5 -13 410.5 58.49
3 -5 -12 373.47 56.47
3 -5 -12 353 34.13
3 -5 -11 926.59 84.94
3 -5 -11 793.51 46.6
3 -5 -10 1029.54 86.75
3 -5 -10 831.82 43.38
3 -5 -9 133.63 14.97
3 -5 -9 149.52 33.91
3 -5 -8 2503.29 132.13
3 -5 -7 82.88 30.78
3 -5 -6 861.86 75.08
3 -5 -6 731.26 63.98
3 -5 -5 591.93 56.88
3 -5 -5 595.73 61.9
3 -5 -4 111.84 12.26
3 -5 -4 100.22 30.27
3 -5 -4 104.45 25.95
3 -5 -3 1148.52 76.29
3 -5 -3 1005.26 42.08
3 -5 -3 1156.84 86.22
3 -5 -2 38.16 16.78
3 -5 -2 33.21 12.04
3 -5 -2 35.27 21.98
3 -5 -1 478.01 35.03
3 -5 -1 546.68 52.3
3 -5 0 93.69 24.22
3 -5 0 77.97 18.01
3 -5 1 1123.23 60.27
3 -5 1 1175.22 75.54
3 -5 2 7.17 16.36
3 -5 2 54.41 16.35
3 -5 3 410.13 40.06
3 -5 4 1227.05 72.51
3 -5 5 95.97 24.73
3 -5 6 2146.02 105.36
3 -5 7 132.29 30.15
3 -5 8 1103.52 80.74
3 -5 9 693.86 65.83
3 -5 10 387.04 53.21
3 -5 11 645.06 69.19
3 -5 12 -35.36 27.75
3 -5 13 508.97 64.99
3 -5 14 71.5 31.87
3 -5 15 306.89 53.48
3 -5 16 31.92 22.66
3 -5 17 102.57 37.18
3 -5 18 5.25 22.33
3 -5 19 5.85 19.26
3 -5 20 111.89 40.37
3 -5 21 48.22 27.93
3 -4 -24 15.54 25.88
3 -4 -23 175.65 55.57
3 -4 -22 33.98 32.86
3 -4 -21 56.49 31.68
3 -4 -20 273.3 58.67
3 -4 -19 -10.79 24.29
3 -4 -18 634.2 82.78
3 -4 -17 -29.95 27.53
3 -4 -16 268.5 52.7
3 -4 -15 262.03 49.66
3 -4 -14 1448.04 108.61
3 -4 -13 710.07 74.31
3 -4 -12 82.72 30.68
3 -4 -11 423.17 36.27
3 -4 -11 425.07 54.59
3 -4 -10 -7.88 13.18
3 -4 -10 2.91 7.05
3 -4 -9 363.23 46.29
3 -4 -9 360.47 27.21
3 -4 -8 476.56 26.93
3 -4 -8 565.13 57.85
3 -4 -7 1582.44 43.57
3 -4 -7 1905.33 104.49
3 -4 -6 1509.04 84.54
3 -4 -6 1403.84 88.71
3 -4 -5 1295.19 77
3 -4 -5 1361.5 86.83
3 -4 -4 455.32 45.31
3 -4 -4 432.32 48.19
3 -4 -3 248.55 16.9
3 -4 -3 266.54 34.52
3 -4 -3 326.86 43.62
3 -4 -2 1085.2 41.9
3 -4 -2 1095.21 67.13
3 -4 -2 1191.07 80.24
3 -4 -1 285.39 24.22
3 -4 -1 356.86 38.65
3 -4 -1 319.79 42.28
3 -4 0 1111.63 68
3 -4 0 1038.78 49.47
3 -4 1 87.37 17.6
3 -4 1 97.42 22.79
3 -4 2 90.45 18.58
3 -4 3 1586.51 72.38
3 -4 3 1537.7 73.88
3 -4 4 158.17 25.33
3 -4 4 101.1 22.75
3 -4 5 3629.7 112.55
3 -4 5 3498.83 126.59
3 -4 6 29.1 11.05
3 -4 6 43.68 18.15
3 -4 7 502.87 38.52
3 -4 7 580.03 54.52
3 -4 8 309.25 30.17
3 -4 8 274.17 38.84
3 -4 9 182.44 24.03
3 -4 9 179.43 34.24
3 -4 10 438.43 34.88
3 -4 10 404.27 50.1
3 -4 11 19.77 10.6
3 -4 11 26.34 19.13
3 -4 12 1411.16 61.81
3 -4 12 1603.8 105.19
3 -4 13 44.42 13.12
3 -4 13 15.06 18.35
3 -4 14 270.08 48.78
3 -4 15 370.49 57.02
3 -4 16 272.62 49.55
3 -4 17 183.28 44.94
3 -4 18 25.72 25.99
3 -4 19 252.5 52.37
3 -4 20 9.58 24.63
3 -4 21 171.88 44.6
3 -4 22 49.74 32.13
3 -3 -24 218.71 60.08
3 -3 -23 40.96 32.27
3 -3 -22 57.8 30.71
3 -3 -21 199.34 55.94
3 -3 -20 72.98 31.57
3 -3 -19 189.16 50.98
3 -3 -18 31.98 27.94
3 -3 -17 121.22 36.8
3 -3 -16 188.25 42.1
3 -3 -15 189.5 45.89
3 -3 -14 959.11 89.02
3 -3 -13 42.2 23.61
3 -3 -12 207.41 38.07
3 -3 -11 -3.85 13.35
3 -3 -10 291.94 29.52
3 -3 -10 439.09 51.22
3 -3 -9 495.65 34.84
3 -3 -9 586.46 59.32
3 -3 -8 825.03 40.55
3 -3 -8 999.75 73.62
3 -3 -7 1578.89 50.9
3 -3 -7 1806.09 97.2
3 -3 -6 362.48 40.2
3 -3 -6 332.91 17.95
3 -3 -6 370.86 44.65
3 -3 -5 1087.04 65.45
3 -3 -5 1093.37 72.3
3 -3 -4 45.52 16.24
3 -3 -4 45.94 20.01
3 -3 -3 2751.42 114.73
3 -3 -3 2509.22 50.6
3 -3 -3 2703.13 103.64
3 -3 -2 552.34 45.15
3 -3 -2 514.63 48.83
3 -3 -1 2718.42 101.77
3 -3 -1 2563.62 111.17
3 -3 0 3964.99 118.47
3 -3 0 3657.55 104.71
3 -3 1 65.84 20.38
3 -3 1 56.7 13.65
3 -3 2 2317.46 86.54
3 -3 2 2235.7 75.69
3 -3 3 92.61 19.3
3 -3 3 85.41 19.07
3 -3 4 1115.73 56.64
3 -3 4 1058.73 57.87
3 -3 5 28.52 13.74
3 -3 5 27.82 15.5
3 -3 6 984.16 51.62
3 -3 6 997.77 63.65
3 -3 7 1535.43 63.82
3 -3 7 1441.58 79.17
3 -3 8 177.37 29.27
3 -3 9 81.75 22.56
3 -3 10 8.44 15
3 -3 10 7.71 15.77
3 -3 11 355.3 48.99
3 -3 12 321.54 46.56
3 -3 13 589.43 66.05
3 -3 14 539.68 62.98
3 -3 15 43.29 21.13
3 -3 16 207.5 42.01
3 -3 17 38.31 21.52
3 -3 18 156.12 41.22
3 -3 19 109.26 39.59
3 -3 20 70.34 28.44
3 -3 21 229.89 53.89
3 -3 22 12.81 20.8
3 -3 23 168.47 46.83
3 -2 -24 144.94 54.61
3 -2 -23 59.28 44.94
3 -2 -22 154.99 53.57
3 -2 -21 69.34 37.06
3 -2 -20 281.23 60.92
3 -2 -19 13.71 19.73
3 -2 -18 75.16 34.47
3 -2 -17 337.91 61.79
3 -2 -16 446.86 65.13
3 -2 -15 506.66 67.03
3 -2 -14 198.13 41.12
3 -2 -13 547.27 62.97
3 -2 -12 221.85 40.45
3 -2 -11 302.52 44.16
3 -2 -10 28.41 17.78
3 -2 -9 186.5 32.29
3 -2 -9 173.17 22.24
3 -2 -8 1587.66 61.17
3 -2 -8 1612.69 88.67
3 -2 -7 414.99 27.44
3 -2 -7 427.99 44.09
3 -2 -6 1697.86 85.73
3 -2 -6 1728.63 78.22
3 -2 -6 1663.87 51.16
3 -2 -5 27.26 15.92
3 -2 -5 1.73 10.9
3 -2 -5 20.87 6.06
3 -2 -5 35.04 16.24
3 -2 -4 3302.5 106.75
3 -2 -4 3135.16 116.02
3 -2 -4 3210.82 114.8
3 -2 -3 20.06 5.4
3 -2 -3 21.58 11.05
3 -2 -3 30.62 13.78
3 -2 -3 48 17.34
3 -2 -2 293.27 30.51
3 -2 -2 263.48 27.44
3 -2 -2 262.43 31.04
3 -2 -2 288.15 31.5
3 -2 -1 2098.54 79.89
3 -2 -1 2079.34 80.71
3 -2 -1 2028.69 87.17
3 -2 -1 2164.86 49.49
3 -2 -1 1959.21 80.41
3 -2 0 204.17 28.12
3 -2 0 224.07 25.11
3 -2 0 222.54 20.74
3 -2 0 214.42 16.28
3 -2 0 194.88 24.21
3 -2 1 1307.62 57.95
3 -2 1 1238.21 57.71
3 -2 1 1255.63 51.49
3 -2 1 1269.73 46.77
3 -2 2 933.4 48.34
3 -2 2 818.06 41.59
3 -2 2 899.44 44.96
3 -2 3 756.02 44.27
3 -2 4 1911.02 76.29
3 -2 5 71.06 17.63
3 -2 6 2869.48 105.83
3 -2 7 31.86 15.11
3 -2 8 629.87 53.96
3 -2 9 216.04 34.11
3 -2 10 279.25 39.99
3 -2 11 149.27 28.7
3 -2 12 109.63 29.65
3 -2 13 627.25 32.66
3 -2 13 866.69 75.75
3 -2 14 17.92 7.39
3 -2 14 14.2 21.14
3 -2 15 713.17 73.11
3 -2 15 683.59 71.03
3 -2 16 11.51 18.68
3 -2 17 348.36 56.35
3 -2 18 224.59 47.9
3 -2 19 54.96 30.2
3 -2 20 220.77 47.03
3 -2 21 -3.99 17.3
3 -2 22 177.35 48.73
3 -2 23 -7.96 23.48
3 -2 24 144.04 44.26
3 -1 -24 41.06 31.36
3 -1 -23 225.38 65.94
3 -1 -22 109.62 42.87
3 -1 -21 242.52 61.5
3 -1 -20 128.93 46.87
3 -1 -19 396.91 72.14
3 -1 -18 1509.21 130
3 -1 -17 -14.17 22.65
3 -1 -16 640.92 79.59
3 -1 -15 674.3 78.73
3 -1 -14 378.73 55.15
3 -1 -13 393.56 53.54
3 -1 -12 584.93 64.1
3 -1 -11 616.5 63.27
3 -1 -10 464.32 51.26
3 -1 -10 564.15 56.54
3 -1 -9 1001.76 73.41
3 -1 -9 880.71 68.51
3 -1 -8 80.7 22.36
3 -1 -8 68.51 15.99
3 -1 -8 38.26 18.18
3 -1 -7 2433.98 69.96
3 -1 -7 2384.12 77.41
3 -1 -7 2374.69 106.65
3 -1 -7 2368.39 102.78
3 -1 -6 451.23 26.13
3 -1 -6 436.88 44.51
3 -1 -6 406.92 40.72
3 -1 -5 614.17 28.42
3 -1 -5 623.75 40.68
3 -1 -5 638.53 47.61
3 -1 -5 645.25 51.1
3 -1 -4 309.53 30.91
3 -1 -4 276.01 18.05
3 -1 -4 284.89 27.41
3 -1 -4 309.34 34.39
3 -1 -4 301.6 32.12
3 -1 -3 -3.01 11.71
3 -1 -3 10.94 10.31
3 -1 -3 5.85 8.88
3 -1 -3 5.02 5.36
3 -1 -3 -0.98 9.4
3 -1 -2 1791.69 69.35
3 -1 -2 1730.55 51.89
3 -1 -2 1671.79 71.06
3 -1 -2 1692.89 65.3
3 -1 -2 1552.97 44.64
3 -1 -2 1597.32 69.68
3 -1 -1 345.78 31.77
3 -1 -1 302.17 27.48
3 -1 -1 224.12 16.44
3 -1 -1 220.85 16.37
3 -1 -1 217.87 25.58
3 -1 0 1616.88 61.48
3 -1 0 1756.61 51.79
3 -1 0 1637.45 63
3 -1 0 1579.79 68.39
3 -1 1 36.83 12.1
3 -1 1 29.28 9.95
3 -1 2 1229.06 46.69
3 -1 2 1057.45 47.74
3 -1 3 558.15 36.59
3 -1 4 61.37 15.7
3 -1 5 1565.9 69.97
3 -1 6 11.38 13.91
3 -1 7 2881.14 108.8
3 -1 8 350.33 38.42
3 -1 9 127.69 26.63
3 -1 9 117.14 14.45
3 -1 10 1460.21 55.53
3 -1 10 1646.55 91.73
3 -1 11 318.73 27.27
3 -1 11 336.43 43.89
3 -1 12 833 48.39
3 -1 12 777.56 68.52
3 -1 13 24.2 9.67
3 -1 13 54.3 24.54
3 -1 14 673.19 68.14
3 -1 14 669.51 49.67
3 -1 15 20.57 14.06
3 -1 15 59.12 24.29
3 -1 16 882.25 82.56
3 -1 17 267.28 48.1
3 -1 17 326.2 54.41
3 -1 18 657.26 75.65
3 -1 18 613.41 73.96
3 -1 19 353.8 58.95
3 -1 20 41.8 29.27
3 -1 21 255.56 54.95
3 -1 22 -20.45 19.91
3 -1 23 91.81 33.67
3 -1 24 56.6 30.04
3 0 -24 54.28 38.82
3 0 -23 -16.73 33.95
3 0 -22 172.25 56.08
3 0 -21 147.25 52.13
3 0 -20 28.64 28.87
3 0 -19 291.13 63.77
3 0 -18 15.64 23.16
3 0 -17 270.84 56.4
3 0 -16 109.51 36.77
3 0 -15 398.97 61.48
3 0 -14 346.96 55.22
3 0 -13 1205.89 95.87
3 0 -12 255.12 44.15
3 0 -12 262.1 38.5
3 0 -11 127.53 30.73
3 0 -11 118.46 27.9
3 0 -10 1414.8 85.69
3 0 -10 1517.93 93.42
3 0 -9 78.94 24.65
3 0 -9 41.79 13.57
3 0 -9 80.56 24.31
3 0 -8 2500.96 107.12
3 0 -8 2392.54 82.85
3 0 -8 2446.7 107.51
3 0 -7 286.26 35.11
3 0 -7 261.65 33.35
3 0 -7 305.92 27.16
3 0 -6 2675.03 79.7
3 0 -6 2792.89 103.41
3 0 -6 2645.32 100.7
3 0 -5 169.8 25.54
3 0 -5 106.91 19.19
3 0 -5 113.49 18.57
3 0 -5 128.95 16.23
3 0 -5 134.69 16.98
3 0 -4 223.78 24.04
3 0 -4 197.33 18.2
3 0 -4 195.27 18.93
3 0 -4 274 27.8
3 0 -4 207.13 24.66
3 0 -3 2796.79 84.49
3 0 -3 2787.13 75.77
3 0 -3 2897.71 78
3 0 -3 2700.56 85.76
3 0 -2 143.7 16.1
3 0 -2 165.16 19.64
3 0 -1 1899.75 63.19
3 0 -1 1836.63 62.74
3 0 -1 1806.15 56.5
3 0 0 828.85 37.79
3 0 0 832.48 40.27
3 0 1 101.42 15.49
3 0 2 4319.92 107.53
3 0 3 17.1 11.45
3 0 4 149.8 21.43
3 0 5 755.14 49.49
3 0 6 1098.74 62.33
3 0 7 2964.25 87.4
3 0 7 3083.38 111.75
3 0 8 122.03 24.45
3 0 8 103.24 16.74
3 0 9 3155.78 122.76
3 0 9 3181.8 99.34
3 0 10 316.1 39.67
3 0 10 339.99 32.67
3 0 11 178.16 32.85
3 0 11 195.17 27.27
3 0 12 288.61 41.4
3 0 12 359.57 37.81
3 0 13 786.58 58.31
3 0 13 788.66 70.99
3 0 13 619.41 34.49
3 0 14 604.37 53.2
3 0 14 503.25 58.01
3 0 15 103.49 24
3 0 15 38.96 20.27
3 0 16 315.26 40.99
3 0 16 355.75 52.06
3 0 17 -9.92 14.29
3 0 17 0.33 19.72
3 0 18 198.43 44.25
3 0 19 6.74 21.59
3 0 20 117.17 35.78
3 0 20 74.99 29.33
3 0 21 52.55 18.21
3 0 22 134.11 43.78
3 0 23 108.7 38.94
3 0 24 47.32 30.15
3 0 25 114.24 40.18
3 1 -24 58.06 42.55
3 1 -23 126.49 50.41
3 1 -22 127.66 49.82
3 1 -21 8.86 27.14
3 1 -20 461.26 82.26
3 1 -14 16.41 16.79
3 1 -13 73.64 23.9
3 1 -12 112.68 27.87
3 1 -11 303.51 41.01
3 1 -10 442.75 48.58
3 1 -9 1573.67 83.38
3 1 -8 607.85 49.06
3 1 -7 24.64 14
3 1 -6 1482.97 59.37
3 1 -6 1507.57 65.2
3 1 -5 3656.44 103.56
3 1 -5 3525.86 95.7
3 1 -4 52.42 8.91
3 1 -4 45.52 9.92
3 1 -3 1240.72 54.39
3 1 -3 1187.54 39.81
3 1 -3 1204.05 51.58
3 1 -2 914.81 46.32
3 1 -2 902.04 39.56
3 1 -1 52.14 9.11
3 1 -1 42.71 11.84
3 1 0 82.24 10.52
3 1 0 100.64 17.53
3 1 0 94.08 15.64
3 1 1 239.8 23.98
3 1 2 1172.55 53.85
3 1 3 25.01 10.32
3 1 4 1706.94 70.88
3 1 5 3825.9 117.07
3 1 5 3653.08 109.26
3 1 6 121 22.35
3 1 6 128.18 20.88
3 1 7 1035.29 63.13
3 1 7 1033.15 57.69
3 1 8 1812.07 80.55
3 1 8 1733.6 86.26
3 1 9 64.51 19.51
3 1 9 51.97 16.82
3 1 10 1077.05 71.88
3 1 10 1139.53 68.19
3 1 11 7.04 15.36
3 1 11 -10.98 15.63
3 1 12 440.58 45.97
3 1 12 452.5 49.88
3 1 13 41.19 20.07
3 1 13 7.88 11.04
3 1 14 19.15 14.87
3 1 14 -3.15 13.48
3 1 15 254.03 44.12
3 1 15 322.07 44.05
3 1 16 39.97 21.86
3 1 16 -1.99 14.32
3 1 17 636.61 65.62
3 1 17 576.52 67.7
3 1 18 24.22 19.18
3 1 18 23.34 21.61
3 1 19 217.96 45.94
3 1 20 103.38 32.02
3 1 21 76.58 32.35
3 1 21 33.11 23.57
3 1 22 136.42 42.71
3 1 22 129.82 39.16
3 1 23 39.76 22.72
3 1 24 289.74 57.73
3 1 25 12.01 22.17
3 2 -16 307.38 46.52
3 2 -15 45.4 21.97
3 2 -14 126.65 29.29
3 2 -13 13.47 17.19
3 2 -12 1334.24 81.95
3 2 -11 114.67 25.2
3 2 -10 424.7 42.3
3 2 -7 2946.73 81.7
3 2 -6 6.72 8.28
3 2 -5 3008.53 101.2
3 2 -4 5919.31 147.61
3 2 -3 358.83 31.86
3 2 -3 401.51 19.82
3 2 -2 4102.28 116.04
3 2 -1 1647.66 69.91
3 2 0 1151.88 58.26
3 2 1 1056.28 53.28
3 2 1 1050.52 56.43
3 2 2 2318.65 86.93
3 2 2 2183.77 80.8
3 2 3 78.78 16.82
3 2 4 6627.27 162.44
3 2 4 6687.9 169.9
3 2 5 1842.97 79.73
3 2 5 1832.08 82.86
3 2 6 70.8 19.5
3 2 6 51.47 17.64
3 2 7 3174.03 118.04
3 2 7 3201.69 116.96
3 2 8 11.37 13.49
3 2 8 -4.85 13.62
3 2 9 488.53 48.07
3 2 9 501.88 49.65
3 2 10 152.54 30.2
3 2 10 193.61 32.79
3 2 11 421.45 48.92
3 2 11 373.91 44.53
3 2 12 1432.08 90.79
3 2 12 1340.09 87.18
3 2 13 40.21 19.42
3 2 13 2.76 12.43
3 2 14 90.39 28.03
3 2 14 102.63 27.84
3 2 15 191.8 38.77
3 2 15 150.23 34.93
3 2 16 196.3 40.77
3 2 16 198.92 39.43
3 2 17 -8.93 22.08
3 2 17 54.46 22.53
3 2 18 159.45 38.72
3 2 18 190.9 40.37
3 2 19 331.96 52.42
3 2 19 318.67 54.85
3 2 20 55.18 29.41
3 2 21 217.42 49.18
3 2 22 81.3 31.9
3 2 23 175.6 45.87
3 2 23 131.54 39.36
3 2 24 2.58 22.16
3 2 24 2.54 20.86
3 2 25 54.98 28.67
3 2 26 6.9 23.26
3 3 -17 815.97 74.3
3 3 -16 176.68 36.66
3 3 -15 404.42 50.51
3 3 -14 179.32 36.88
3 3 -13 215.98 34.93
3 3 -12 301.36 38.22
3 3 -8 1194.44 45.37
3 3 -7 102.49 13.75
3 3 -3 1515.15 51.75
3 3 -2 913.71 55.11
3 3 -1 821.13 52.45
3 3 0 78.52 21.3
3 3 1 32.94 14.15
3 3 2 2060.73 87.78
3 3 2 2190.21 85.5
3 3 3 69.87 24.11
3 3 3 75.35 19.75
3 3 4 1639.26 84.53
3 3 4 1625.1 75.85
3 3 5 16.31 13.45
3 3 5 32.53 16.88
3 3 6 244.98 31.86
3 3 6 221.88 35.44
3 3 7 1250.29 71.58
3 3 7 1261.61 79.11
3 3 8 72.39 21.91
3 3 8 100.68 24.33
3 3 9 1126.63 73.47
3 3 9 1206.43 82.42
3 3 10 516.84 55.7
3 3 10 467.69 49.07
3 3 11 791.39 69.54
3 3 11 778.23 64.93
3 3 12 27.16 17.36
3 3 12 55.06 23.46
3 3 13 617.29 61
3 3 13 657.36 67.49
3 3 14 198.02 37.15
3 3 14 183.64 38.49
3 3 15 719.79 70.59
3 3 15 674.08 72.31
3 3 16 48.38 22.12
3 3 16 17.87 17.34
3 3 17 405.28 57.14
3 3 17 355.92 56.7
3 3 18 450.27 60.98
3 3 18 666.48 78.08
3 3 19 179.11 42.67
3 3 19 177.54 45.89
3 3 20 209.49 47.22
3 3 20 222.94 46.91
3 3 21 27.37 22.21
3 3 22 119.83 36.3
3 3 23 132.56 41.65
3 3 24 47.33 32.38
3 3 24 66.52 34.67
3 3 25 93.3 40.67
3 3 25 119.57 39.77
3 3 26 12.82 23.82
3 4 -17 33.82 19.7
3 4 -16 141.4 30.9
3 4 -15 229.1 38.36
3 4 -14 57.62 20.44
3 4 -13 694.67 58.24
3 4 -8 14.17 7.45
3 4 -4 3371.37 96.12
3 4 -3 24.03 10.28
3 4 -3 18.18 5.37
3 4 1 1487.03 52.77
3 4 2 19.56 7.43
3 4 2 23.6 12.54
3 4 3 741.29 52.84
3 4 3 778.08 61.35
3 4 3 775.9 34.69
3 4 4 506.43 43.75
3 4 4 472.21 49.41
3 4 4 486.05 29.04
3 4 5 2482.21 117.47
3 4 5 2649.08 105.1
3 4 6 564.51 49.81
3 4 6 662.99 62.34
3 4 7 2009.35 95.24
3 4 7 1964.47 108.05
3 4 8 945.46 65.55
3 4 8 978.86 78.64
3 4 9 70.1 23.97
3 4 9 71.57 20.95
3 4 10 1343.35 84.72
3 4 10 1369.03 96.68
3 4 11 38.43 19.47
3 4 11 17.97 18.68
3 4 12 964.3 85.26
3 4 12 974.8 75.77
3 4 13 0.14 13.54
3 4 13 -5.91 14.9
3 4 14 617.19 64.51
3 4 14 603.62 71.66
3 4 15 83.42 26.96
3 4 15 105.68 31.81
3 4 16 217.97 42
3 4 16 183.11 40.57
3 4 17 237.18 44.06
3 4 17 258.98 51.41
3 4 18 -3.87 17.49
3 4 18 6.39 17.66
3 4 19 305.5 57.53
3 4 19 404.32 61.39
3 4 20 58.25 28.58
3 4 20 76.72 35.12
3 4 21 73.79 35.87
3 4 21 144.45 43.91
3 4 22 51.48 26.5
3 4 23 90.96 36.21
3 4 24 113.21 38.75
3 4 25 -25.46 28.36
3 4 25 -8.57 24.95
3 5 -16 153.8 33.61
3 5 -15 206.65 35.72
3 5 -9 243.58 15.89
3 5 -5 1600.56 71.39
3 5 -4 141.26 24.3
3 5 -3 45.09 14.91
3 5 -3 35.69 8.86
3 5 -2 2274.32 66.22
3 5 -1 1043.36 46.56
3 5 1 31.31 13.2
3 5 2 5058.94 179.04
3 5 2 5090.28 125.99
3 5 3 89.41 29.89
3 5 3 94.22 23.58
3 5 3 70.94 15.61
3 5 4 1632.28 98.72
3 5 4 1649.73 84.86
3 5 4 1712.73 66.32
3 5 5 104.18 18.17
3 5 5 82.79 22.07
3 5 5 75.67 23.4
3 5 6 379.35 42.07
3 5 6 364.53 49.34
3 5 6 416.19 35.46
3 5 7 1367.77 80.83
3 5 7 1441.1 98.74
3 5 8 536.28 51.98
3 5 8 525.28 61.69
3 5 9 481.65 50.18
3 5 9 422.54 56.82
3 5 10 15.34 13.61
3 5 10 54.78 28.01
3 5 11 239.96 45.49
3 5 11 200.57 36
3 5 12 586.52 70.38
3 5 12 592.42 60.71
3 5 13 55.59 21.99
3 5 13 55.8 29.46
3 5 14 418.16 64
3 5 14 403.06 54.67
3 5 15 -8.54 14.29
3 5 15 7.91 21.88
3 5 16 346.21 51.59
3 5 16 406.64 65.19
3 5 17 103.22 33.14
3 5 17 65.83 29.77
3 5 18 263.81 47.28
3 5 18 263.33 54.19
3 5 19 373.09 57.96
3 5 19 363.12 66.04
3 5 20 -16.8 21.71
3 5 20 8.85 24.38
3 5 21 276.94 57.76
3 5 21 271.73 56.59
3 5 22 -11.37 22.73
3 5 22 -51.03 35.21
3 5 23 91.19 37.16
3 5 24 22.03 28.74
3 5 25 128.59 41.67
3 6 -5 16.28 10.18
3 6 -4 345.93 36.02
3 6 -3 2941.61 106.28
3 6 -3 2611.55 78.19
3 6 -2 164.18 19.37
3 6 -1 1308.87 58.71
3 6 0 95.63 21.18
3 6 0 131.12 20.6
3 6 1 1019.91 60.28
3 6 2 139.29 36.01
3 6 2 130.46 21.76
3 6 3 1552.69 83.17
3 6 3 1514.57 99.13
3 6 3 1284.69 65.81
3 6 4 1296.81 78.03
3 6 4 1425.12 99.5
3 6 4 1238.48 64.41
3 6 5 1137.71 74.19
3 6 5 990.46 84.51
3 6 5 1122.95 61.99
3 6 6 667.8 71.06
3 6 6 759.72 61.41
3 6 6 759.77 53.09
3 6 7 29.23 16.52
3 6 7 53.35 29.81
3 6 8 102.46 26.3
3 6 8 101.42 32.79
3 6 9 22.5 16.24
3 6 9 67.51 30.99
3 6 10 791.36 67.27
3 6 10 757.89 80.33
3 6 11 86.15 31.4
3 6 11 58.33 20.39
3 6 12 261.09 52.08
3 6 12 265.78 41.53
3 6 13 379.46 64.61
3 6 13 343.17 49.43
3 6 14 35.16 18.81
3 6 14 -23.18 26.63
3 6 15 43.21 22.93
3 6 15 29.97 19.07
3 6 16 27.48 22.03
3 6 16 8.69 21.06
3 6 17 97.65 30.82
3 6 17 53.16 23.89
3 6 18 125.74 35.99
3 6 18 112.15 40.03
3 6 19 71.78 30.44
3 6 19 35.44 21.29
3 6 20 270.82 51.62
3 6 20 338.48 67.16
3 6 21 -36.82 30.52
3 6 21 33.3 26.81
3 6 22 117.81 42.95
3 6 22 96.03 43.59
3 6 23 -34.66 26.83
3 6 23 -19.94 26.26
3 6 24 55.41 32.05
3 6 25 48.19 27.75
3 7 -5 186.37 29.69
3 7 -4 1025.53 67.43
3 7 -3 88.55 22.91
3 7 -2 158.01 27.16
3 7 -2 125.94 19.62
3 7 -1 41.62 11.7
3 7 2 569.03 65.57
3 7 3 48.39 20.07
3 7 3 57.71 27.52
3 7 4 70.47 21.1
3 7 4 72.58 24.94
3 7 5 597.16 56.09
3 7 5 543.22 66.32
3 7 6 25.73 20.93
3 7 6 66.98 21.29
3 7 7 1001.51 92.66
3 7 7 943.92 72.62
3 7 8 533.06 54.83
3 7 8 480.52 66.24
3 7 9 390.75 47.66
3 7 9 358.56 56.52
3 7 10 682.64 64.51
3 7 10 626.9 76.88
3 7 11 26.01 13.91
3 7 11 64.35 30.52
3 7 12 894.63 76.37
3 7 12 799.7 90.59
3 7 13 5.23 19.3
3 7 13 -12.93 17.85
3 7 14 587.97 80.73
3 7 14 695.18 72.08
3 7 15 99.9 29.31
3 7 15 125.49 43.84
3 7 16 221.8 41.63
3 7 16 219.48 53.69
3 7 17 197.15 44.63
3 7 17 121.12 41.71
3 7 18 17.97 20.2
3 7 18 22.05 31.49
3 7 19 114.83 36.16
3 7 19 122.43 43.87
3 7 20 6.58 17.94
3 7 20 42.5 30.37
3 7 21 117.63 37.44
3 7 21 -22.29 33.19
3 7 22 12.59 21.42
3 7 22 31.24 27.85
3 7 23 59.84 30.41
3 7 23 151 52.1
3 7 24 -18.84 25.38
3 7 24 46.02 29.19
3 7 25 -8.39 23.17
3 8 -5 1723.88 95.35
3 8 -4 114.87 27.62
3 8 -3 276.61 38.59
3 8 -2 773.67 61.85
3 8 2 399.15 59.59
3 8 3 99.91 31.81
3 8 4 613.78 74.75
3 8 4 646.2 59.18
3 8 5 158.91 33.98
3 8 5 94.37 36.09
3 8 6 917.21 72.97
3 8 6 781.95 86.02
3 8 7 758.16 88.1
3 8 7 766.22 68.22
3 8 8 380.01 64.69
3 8 8 441.06 52.71
3 8 9 1240.18 89.42
3 8 9 1051.68 103.82
3 8 10 20.94 19.36
3 8 10 4.77 19.67
3 8 11 878.83 77.83
3 8 11 855.95 96.49
3 8 12 161.86 36.12
3 8 12 156.98 45.4
3 8 13 481.15 59.72
3 8 13 463.74 75.07
3 8 14 131.57 34.27
3 8 14 141.38 43.64
3 8 15 75.65 39.66
3 8 15 63.62 27.95
3 8 16 154.38 47.16
3 8 16 202.63 44.5
3 8 17 -27.44 23.41
3 8 17 -5.91 17.06
3 8 18 65.14 26.3
3 8 18 144.73 48.81
3 8 19 -12.64 19.71
3 8 19 22.16 23.22
3 8 20 234.05 50.23
3 8 20 261.52 67.48
3 8 21 35.62 28.49
3 8 21 60.24 42.76
3 8 22 113.79 38.12
3 8 22 9.96 29.71
3 8 23 26.14 23.69
3 8 23 77.94 47.51
3 8 24 -47.94 33.64
3 8 24 -28.07 27.91
3 9 -5 394.41 49.44
3 9 -4 176.52 34.78
3 9 -3 456.97 53.38
3 9 -2 75.55 26.21
3 9 -1 955.52 73.95
3 9 2 192.57 46.12
3 9 3 548.28 73.77
3 9 4 308.94 44.34
3 9 4 325.42 57.83
3 9 5 474.61 68.78
3 9 5 529.41 57.18
3 9 6 285.45 55.17
3 9 6 318.15 45.01
3 9 7 300.65 58.38
3 9 7 403.7 52.97
3 9 8 239 41.08
3 9 8 227.68 48.76
3 9 9 128.14 40.38
3 9 9 91.79 28
3 9 10 287.87 46.02
3 9 10 258.02 56.9
3 9 11 16.17 16.04
3 9 11 -18.28 20.95
3 9 12 334.88 50.58
3 9 12 294.58 57.52
3 9 13 169.14 48.07
3 9 13 216.29 42.38
3 9 14 28.3 24.23
3 9 14 2.67 20.27
3 9 15 279.87 62.04
3 9 15 350.56 55.56
3 9 16 13.55 25.45
3 9 16 -4.02 20.13
3 9 17 201.38 44.61
3 9 17 298.21 63.47
3 9 18 19.02 21.05
3 9 18 -5.05 29.15
3 9 19 132.8 36.03
3 9 19 109.54 44.97
3 9 20 119.69 37.78
3 9 20 86.12 39.29
3 9 21 17.94 17.78
3 9 21 21.29 24.35
3 9 22 198.45 48.33
3 9 22 188.1 61.07
3 9 23 37.44 38.32
3 9 24 207.55 64.64
3 10 -5 405.29 53.52
3 10 -4 588.81 64.15
3 10 -3 343.57 50.37
3 10 -2 771.75 72
3 10 -1 81.19 30.59
3 10 2 688.82 84.94
3 10 3 455.7 72.18
3 10 4 169.55 35.94
3 10 4 185.37 49.03
3 10 5 936.38 78.76
3 10 5 940.03 102.31
3 10 6 29.06 29.33
3 10 6 70.98 32.24
3 10 7 1066.6 86.45
3 10 7 892.37 104.14
3 10 8 250.54 47.25
3 10 8 226.43 55.34
3 10 9 201.43 40.97
3 10 9 171.86 47.26
3 10 10 372.78 56.31
3 10 10 413.43 77.99
3 10 11 34.65 23.72
3 10 11 15.59 20.95
3 10 12 207.51 43.69
3 10 12 131.38 44.73
3 10 13 59.48 27.35
3 10 13 -50.35 33.23
3 10 14 67.57 43.08
3 10 14 178.24 41.79
3 10 15 64.09 29.51
3 10 15 -45.98 25
3 10 16 -60.3 27.67
3 10 16 35.39 25.68
3 10 17 73.46 32.39
3 10 17 43.45 37.53
3 10 18 14.92 21.41
3 10 18 49.09 39.15
3 10 19 151.37 43.2
3 10 19 105.26 40.82
3 10 20 40.17 22.33
3 10 20 -33.06 38.74
3 10 21 94.54 42.67
3 10 22 110.35 55.75
3 11 -5 627.99 70.37
3 11 -4 49.57 24.02
3 11 -3 867.39 81.66
3 11 -2 196.64 44.5
3 11 -1 548.8 65.2
3 11 0 105.73 35.15
3 11 2 322.02 65.23
3 11 3 36.65 33.32
3 11 4 370.93 52.31
3 11 4 317.05 65.22
3 11 5 106.12 40.43
3 11 5 185.18 37.7
3 11 6 1041.54 87.84
3 11 6 971.08 111.07
3 11 7 61.84 40.62
3 11 7 53.28 29.01
3 11 8 819.48 104.06
3 11 8 779.03 77.95
3 11 9 533.89 90.17
3 11 9 498.52 65.12
3 11 10 58.2 40.12
3 11 10 67.67 28.29
3 11 11 297.19 72.22
3 11 11 318.93 53.22
3 11 12 74.74 28.16
3 11 12 74.84 34.22
3 11 13 158.2 38.1
3 11 13 113.16 46.74
3 11 14 97.19 33.9
3 11 14 57.84 41.48
3 11 15 427.23 84.94
3 11 15 434.07 64.07
3 11 16 213.33 61.41
3 11 16 243.07 52.01
3 11 17 329.2 60.22
3 11 17 214.83 58.68
3 11 18 205.78 67.57
3 11 19 -22.84 40.51
3 11 20 118.27 53.04
3 11 21 -30.74 37.39
3 12 -5 173.59 43.09
3 12 -4 392.64 59.21
3 12 -3 61.48 30.1
3 12 -2 445.17 62.96
3 12 -1 216.2 47.91
3 12 0 223.6 45.43
3 12 1 217.73 43.93
3 12 3 207.94 44.85
3 12 3 210.13 54.53
3 12 4 241.61 46.32
3 12 4 104.05 37.58
3 12 5 274.39 48.4
3 12 5 206.66 49.36
3 12 6 358.12 56.13
3 12 6 346.8 74.22
3 12 7 95.66 32.43
3 12 7 124.88 52.79
3 12 8 356.85 73.84
3 12 8 459.08 63.46
3 12 9 116.71 36.24
3 12 9 14.29 26.32
3 12 10 454.06 61.75
3 12 10 380.07 73.68
3 12 11 215.22 46.73
3 12 11 180.8 59.69
3 12 12 306.92 53.27
3 12 12 228.25 65.24
3 12 13 258.05 49.08
3 12 13 205.24 60.48
3 12 14 84.79 37.18
3 12 14 39 26.97
3 12 15 283.54 73.25
3 12 16 -4.19 27.12
3 12 17 138.45 61.76
3 12 18 -10.34 39.52
3 12 19 125.4 53.79
3 13 -5 80.93 34.14
3 13 -4 301.64 57.65
3 13 -3 139.2 41.05
3 13 -2 239.57 49.69
3 13 -1 78.5 33.63
3 13 0 111.25 38.3
3 13 1 50.14 31.77
3 13 2 36.54 26.25
3 13 3 54.7 24.94
3 13 4 68.09 36.04
3 13 4 114.86 32.42
3 13 5 71.38 30.01
3 13 5 96.91 43.83
3 13 6 150.43 57.65
3 13 6 170.51 43.1
3 13 7 250.19 64.41
3 13 7 388.26 59.51
3 13 8 92.9 34.97
3 13 8 39.37 39.9
3 13 9 338.09 56.97
3 13 9 403.8 77.93
3 13 10 28.34 25.86
3 13 10 46.84 34.79
3 13 11 35.66 22.42
3 13 11 -1.61 28.64
3 13 12 90.92 33.89
3 13 13 104.17 51.36
3 13 14 136.96 48.67
3 13 15 48.44 42.42
3 13 16 166.26 56.03
3 14 -4 24.1 20.01
3 14 -3 220.2 52.39
3 14 -2 116.69 43.42
3 14 -1 182.46 46.78
3 14 0 149.68 45.83
3 14 1 181.58 43.88
3 14 2 177.98 40.39
3 14 3 164.82 44.73
3 14 3 202.14 46.31
3 14 4 251.17 50.62
3 14 4 185.87 60.44
3 14 5 103.1 40.54
3 14 5 89.46 34.71
3 14 6 164.9 51.81
3 14 6 172.72 45.03
3 14 7 56.42 39.76
3 14 7 66.15 29.4
3 14 8 118.29 37.11
3 14 9 65.49 44.19
3 14 10 134.21 58.39
3 14 11 156.11 60.55
3 14 12 20.19 40.16
3 14 13 172.8 65.34
3 14 14 5.18 37.71
3 15 -4 190.49 48.78
3 15 -3 38.57 29.5
3 15 -2 178.61 49.32
3 15 -1 24.29 32.46
3 15 0 190.3 50.01
3 15 1 157.68 45.96
3 15 2 177.87 49.22
3 15 2 158.45 45.08
3 15 3 289.94 54.06
3 15 3 374.71 67.47
3 15 4 142.78 49.08
3 15 5 83.78 28.8
3 15 5 144.23 51.59
3 15 6 73.24 41.61
3 15 7 67.72 43.06
3 15 8 111.79 54.57
3 15 9 32.32 39.14
3 15 10 302.86 80.29
4 -14 -2 130.71 37.15
4 -14 -1 25.41 25.34
4 -14 0 59.62 27.83
4 -14 1 30.15 20.15
4 -14 2 35.13 33.41
4 -14 3 73.34 34.59
4 -14 4 50.33 33.33
4 -14 5 263.7 59.4
4 -14 6 -0.5 22.94
4 -13 -12 222.09 67.14
4 -13 -11 10.16 35.65
4 -13 -3 240.49 56.3
4 -13 -2 77.06 37.33
4 -13 -1 317.3 61.31
4 -13 0 140.52 44.17
4 -13 1 204.44 50.02
4 -13 2 199.87 51.37
4 -13 3 46.58 29.71
4 -13 4 119.8 39.38
4 -13 5 -18.37 24.94
4 -13 6 100.66 38.8
4 -13 7 -9.04 23.48
4 -13 7 38.52 25.13
4 -13 8 112.24 42.47
4 -13 8 73.36 33.25
4 -13 9 33.72 27.22
4 -13 10 58.99 34.02
4 -12 -15 178.52 59.77
4 -12 -14 -44.75 25.14
4 -12 -13 209.2 60.2
4 -12 -12 89.86 54.29
4 -12 -11 258.47 68.01
4 -12 -10 159.52 52.25
4 -12 -9 89.62 43.26
4 -12 -4 697.37 88.32
4 -12 -3 189.21 50.93
4 -12 -2 316.55 58.67
4 -12 -1 531.34 76.32
4 -12 0 357.11 65.25
4 -12 1 413.63 68
4 -12 2 40.67 30.46
4 -12 3 375.83 63.33
4 -12 4 -4.59 18.31
4 -12 4 -11.13 22.51
4 -12 5 125.19 40.54
4 -12 5 91.8 33.18
4 -12 6 146.24 39.39
4 -12 6 128.9 39.94
4 -12 7 79.22 33.43
4 -12 7 50.73 24.28
4 -12 8 170.3 46.48
4 -12 8 221.09 46.61
4 -12 9 -2.67 16.6
4 -12 9 28.77 35.48
4 -12 10 189.31 59.41
4 -12 10 146.98 41.66
4 -12 11 -7.86 26.64
4 -12 12 129.9 39.39
4 -11 -17 10.89 29.76
4 -11 -16 149.71 52.78
4 -11 -15 25.52 36.76
4 -11 -14 159.83 57.14
4 -11 -13 60.71 42.61
4 -11 -12 310.67 68.08
4 -11 -11 159.12 54.44
4 -11 -10 169.34 54.89
4 -11 -9 438.92 81.13
4 -11 -8 21.23 38.56
4 -11 -5 452.63 71.98
4 -11 -4 248.02 52.19
4 -11 -3 182.5 45.13
4 -11 -2 355.42 60.63
4 -11 -1 68.82 32
4 -11 0 500.81 70.33
4 -11 1 31.7 18.87
4 -11 1 54.08 27.99
4 -11 2 442.02 58.86
4 -11 2 477.99 67.97
4 -11 3 220.42 46.03
4 -11 3 291.46 54.71
4 -11 4 160.16 38.49
4 -11 4 220.57 49.54
4 -11 5 328.94 53.73
4 -11 5 344.95 60.1
4 -11 6 37.53 27.9
4 -11 6 14.77 25.24
4 -11 7 251.34 50.68
4 -11 7 229.62 51.31
4 -11 8 -21.25 19.77
4 -11 8 8.75 20.09
4 -11 9 137.17 41.27
4 -11 9 130.62 38.02
4 -11 10 92.32 32.84
4 -11 10 37.03 30.31
4 -11 11 83.46 28.24
4 -11 11 176.01 51.37
4 -11 12 43.89 29.81
4 -11 12 107.08 41.55
4 -11 13 -49.12 27.23
4 -10 -18 41.97 32.84
4 -10 -17 263.52 63.41
4 -10 -16 -10.96 30.03
4 -10 -15 109.61 39.43
4 -10 -14 64.91 36.41
4 -10 -13 274.29 60.33
4 -10 -12 173.41 54.2
4 -10 -11 79.1 44.59
4 -10 -10 351.25 72.63
4 -10 -9 82.48 37.46
4 -10 -8 -0.72 25.38
4 -10 -7 67.06 32.42
4 -10 -6 363.6 61.09
4 -10 -6 328.69 63.67
4 -10 -5 171.75 41.42
4 -10 -4 104.98 34.91
4 -10 -3 445.25 64.82
4 -10 -2 70.18 33.72
4 -10 -1 357.14 44.24
4 -10 -1 402.73 61.06
4 -10 0 172.67 31.17
4 -10 0 215.2 41.99
4 -10 1 274.93 52.3
4 -10 1 153.74 32.31
4 -10 2 223.37 41.93
4 -10 2 299.41 53.2
4 -10 3 -11.36 21.75
4 -10 3 14.45 17.95
4 -10 4 13.68 15.84
4 -10 4 19.46 18.23
4 -10 5 42.15 24.6
4 -10 5 32.89 17.52
4 -10 6 352.43 54.73
4 -10 6 307.79 53.98
4 -10 7 27.66 22.54
4 -10 7 63.23 27.82
4 -10 8 192.11 44.78
4 -10 8 210.2 43.43
4 -10 9 242.67 51.67
4 -10 9 267.66 52.58
4 -10 10 17.62 19.73
4 -10 10 50.47 34.53
4 -10 11 10.31 22.69
4 -10 11 47.43 25.63
4 -10 12 33.31 30.01
4 -10 12 10.12 17.87
4 -10 13 173.04 47.29
4 -10 13 235.62 55.85
4 -10 14 40.08 32.78
4 -10 15 137.1 45.9
4 -9 -20 139.04 51.55
4 -9 -19 -3.14 21.12
4 -9 -18 171.35 50.82
4 -9 -17 26.07 28.84
4 -9 -16 161.81 48.68
4 -9 -15 18.7 21.14
4 -9 -14 107.57 41.33
4 -9 -13 457.29 76.63
4 -9 -12 63.7 36.53
4 -9 -11 634.84 87.23
4 -9 -10 88.58 40.59
4 -9 -9 726.25 91.83
4 -9 -8 154.94 50.17
4 -9 -7 935.67 104.35
4 -9 -6 1668.95 121.87
4 -9 -6 1734.31 138.88
4 -9 -5 361.36 58.96
4 -9 -5 390.79 77.65
4 -9 -4 1461.61 112.25
4 -9 -3 112.85 23.3
4 -9 -3 188.41 44.24
4 -9 -2 732.54 55.2
4 -9 -2 830.42 83.51
4 -9 -1 206.45 32.81
4 -9 -1 258.42 48.2
4 -9 0 568.38 55.03
4 -9 0 717.39 77.53
4 -9 1 1167.79 81.31
4 -9 1 1380.71 105.98
4 -9 2 257.87 51.1
4 -9 2 224.41 42.22
4 -9 3 1528.81 100.93
4 -9 3 1743.19 118.55
4 -9 4 113.27 34.28
4 -9 4 29.09 24.95
4 -9 5 631.76 68.23
4 -9 5 757.31 78.46
4 -9 6 124.86 32.97
4 -9 6 139.55 36.86
4 -9 7 217.75 44.76
4 -9 7 258.45 47.07
4 -9 8 422.1 61.26
4 -9 8 346.99 55.48
4 -9 9 17.33 15.42
4 -9 9 69.59 29.72
4 -9 10 380.39 59.39
4 -9 10 366.89 62.06
4 -9 11 88.44 32.43
4 -9 11 52.65 28.03
4 -9 12 220.64 52.27
4 -9 13 26.68 25.05
4 -9 14 170.19 50.85
4 -9 15 135.43 46.03
4 -9 16 -30.28 26.45
4 -8 -21 259.18 65.96
4 -8 -20 24.76 24.7
4 -8 -19 288.94 67.48
4 -8 -18 -5.46 23.14
4 -8 -17 102.39 43.15
4 -8 -16 273.66 59.12
4 -8 -15 41.5 31.96
4 -8 -14 150.44 45.51
4 -8 -13 22.52 28.08
4 -8 -12 592.79 81.63
4 -8 -11 282.19 57.93
4 -8 -10 214.28 48.21
4 -8 -9 814.09 94.51
4 -8 -8 56.93 37.41
4 -8 -7 1205 110.57
4 -8 -7 1105.79 97.1
4 -8 -6 332.41 53.71
4 -8 -6 323.28 61.76
4 -8 -5 266.88 24.08
4 -8 -5 363.12 55.99
4 -8 -5 370.03 64.71
4 -8 -4 702.22 43.95
4 -8 -4 910.51 93.58
4 -8 -4 779.22 77.52
4 -8 -3 182.47 24.3
4 -8 -3 246.09 45.7
4 -8 -2 121.8 22.21
4 -8 -2 151.41 35.68
4 -8 -1 42.24 17.21
4 -8 -1 84.35 30.8
4 -8 0 435.44 45.03
4 -8 0 517.02 62.45
4 -8 1 359.72 42.57
4 -8 1 443.93 58.95
4 -8 2 267.77 38.64
4 -8 2 288.01 47.01
4 -8 3 19.32 17.05
4 -8 3 55.79 24.68
4 -8 4 769.42 70.92
4 -8 4 911.94 82.9
4 -8 5 77.83 28.41
4 -8 5 89.35 25.68
4 -8 6 429.22 59.33
4 -8 6 397.3 53.59
4 -8 7 481.55 60.43
4 -8 7 508.14 64.22
4 -8 8 60.96 16.99
4 -8 9 608.68 71.82
4 -8 10 57.46 27.13
4 -8 11 240.72 47.03
4 -8 12 69.54 29.53
4 -8 13 158.41 43.18
4 -8 14 141.92 42.89
4 -8 15 14.44 19.9
4 -8 16 228.91 50.4
4 -8 17 -35.89 27.93
4 -7 -22 169.3 50.45
4 -7 -21 -24.71 26.08
4 -7 -20 55.16 35.67
4 -7 -19 26.1 32.76
4 -7 -18 140.97 44.46
4 -7 -17 49.82 24.66
4 -7 -16 39.02 23.82
4 -7 -15 499.63 74.47
4 -7 -14 80.93 33.39
4 -7 -13 501.07 74.49
4 -7 -12 113.14 34.12
4 -7 -11 354.93 61.75
4 -7 -10 126.54 39.36
4 -7 -9 11.82 20
4 -7 -8 777.53 86
4 -7 -7 18.75 20.38
4 -7 -7 61.81 35.3
4 -7 -6 1438.78 102.57
4 -7 -6 1511.17 116.82
4 -7 -5 206.11 17.37
4 -7 -5 260.88 44.86
4 -7 -5 291.03 55.72
4 -7 -4 605.5 36.24
4 -7 -4 703.98 70.35
4 -7 -4 754.42 82.19
4 -7 -3 262.21 27.91
4 -7 -3 307.82 45.98
4 -7 -3 324.31 54.11
4 -7 -2 75.16 17.01
4 -7 -2 84.77 24.46
4 -7 -1 356.06 49.17
4 -7 -1 276.55 32.21
4 -7 0 143.29 24.93
4 -7 0 170.37 36.24
4 -7 1 818.42 59.42
4 -7 1 902.58 77.34
4 -7 2 613.5 64.1
4 -7 2 462.54 47.46
4 -7 3 577.23 53.97
4 -7 3 559.79 63.25
4 -7 4 1177.98 80.72
4 -7 4 1226.92 92.11
4 -7 5 100.31 29.81
4 -7 5 119.09 31.01
4 -7 6 129.28 29.91
4 -7 7 50.09 20.58
4 -7 8 394.93 55.71
4 -7 9 86.33 29.81
4 -7 10 84.23 31.32
4 -7 11 808.12 85.78
4 -7 12 -10.92 23.28
4 -7 13 337.82 57.47
4 -7 14 26.83 22.1
4 -7 15 71.66 34.36
4 -7 16 -10.79 20.72
4 -7 17 -25.06 23.51
4 -7 18 -1.97 28.94
4 -6 -22 6.32 22.89
4 -6 -21 57.43 32.3
4 -6 -20 167.25 53.84
4 -6 -19 34.64 25.78
4 -6 -18 586.25 86.81
4 -6 -17 76.58 35.23
4 -6 -16 261.88 55.68
4 -6 -15 347.63 61.69
4 -6 -14 208.77 48.21
4 -6 -13 345.94 58.03
4 -6 -12 433.65 62.82
4 -6 -11 454.96 64.09
4 -6 -10 -1.8 22.44
4 -6 -9 653.88 73.13
4 -6 -8 -10.7 16.41
4 -6 -7 397.04 57.69
4 -6 -7 363.21 48.66
4 -6 -6 500.18 57.5
4 -6 -6 524.26 66.87
4 -6 -5 768.95 70.61
4 -6 -5 755.43 78.27
4 -6 -4 401.05 25.29
4 -6 -4 468.72 55.15
4 -6 -4 476.72 62.8
4 -6 -3 17.23 16.54
4 -6 -3 25.71 10.7
4 -6 -3 20.27 17
4 -6 -2 438.75 34.65
4 -6 -2 546.05 57.06
4 -6 -2 473.65 60.82
4 -6 -1 1.96 14.73
4 -6 -1 5.29 8.84
4 -6 0 290.44 32.59
4 -6 0 314.68 44.36
4 -6 1 486.3 53.73
4 -6 1 442.44 40.66
4 -6 2 81.24 24.03
4 -6 2 96.98 21.76
4 -6 3 1083.11 71.21
4 -6 3 1058.42 80.73
4 -6 4 39.51 19.67
4 -6 5 368.52 45.28
4 -6 6 200.32 34.21
4 -6 7 415.85 51.55
4 -6 8 207.24 39.82
4 -6 9 119.45 33.81
4 -6 10 828.22 79.4
4 -6 11 5.98 17.88
4 -6 12 240.59 46.42
4 -6 13 46.34 25.58
4 -6 14 524.47 70.54
4 -6 15 48.93 26.63
4 -6 16 231.94 52.02
4 -6 17 206.37 48.25
4 -6 18 57.08 35.01
4 -6 19 105.67 37.46
4 -5 -23 48.38 39.01
4 -5 -22 57.2 27.4
4 -5 -21 170.85 51.43
4 -5 -20 95.82 36.41
4 -5 -19 186.06 48.87
4 -5 -18 -14.12 22.14
4 -5 -17 355.18 65.1
4 -5 -16 204.48 47.01
4 -5 -15 228.66 47.48
4 -5 -14 522.88 69.56
4 -5 -13 279.38 49.35
4 -5 -12 778.59 80.86
4 -5 -11 -0.08 19.32
4 -5 -10 29.78 7.05
4 -5 -10 56.04 23.39
4 -5 -9 419.7 57.34
4 -5 -8 637.11 68.38
4 -5 -7 311.65 43.52
4 -5 -7 330.08 49.12
4 -5 -6 448.93 52.19
4 -5 -6 493.92 60.49
4 -5 -5 2990.69 134.9
4 -5 -5 3107.61 150.69
4 -5 -4 426.07 21.27
4 -5 -4 510.14 54.08
4 -5 -4 589.69 64.06
4 -5 -3 574.98 31.24
4 -5 -3 724.86 63.17
4 -5 -3 734.75 71.42
4 -5 -2 404.73 29.68
4 -5 -2 449.17 49.27
4 -5 -2 539.52 61.89
4 -5 -1 1174.98 54.21
4 -5 -1 1219.72 80.93
4 -5 0 396.39 46.74
4 -5 0 352.54 32.82
4 -5 1 10.62 11.59
4 -5 1 20.33 20.59
4 -5 2 2871.19 106.65
4 -5 3 176.18 29.14
4 -5 4 1111.57 71.21
4 -5 5 504.05 49.25
4 -5 6 366.11 43.16
4 -5 6 324.61 36.58
4 -5 7 67.37 19.75
4 -5 7 16.66 17.93
4 -5 8 94.45 22.19
4 -5 8 88.1 26.29
4 -5 9 281.09 32.69
4 -5 9 275.07 46.02
4 -5 10 93.03 21.21
4 -5 10 130.06 38.06
4 -5 11 856.67 56.04
4 -5 11 929.34 82.87
4 -5 12 124.19 36.32
4 -5 13 488.46 65.11
4 -5 14 330.46 54.41
4 -5 15 65.52 28.81
4 -5 16 208.13 48.15
4 -5 17 89.14 39.75
4 -5 18 209.27 52.96
4 -5 19 -1.05 21.64
4 -5 20 33.05 28.21
4 -4 -23 79.84 43.71
4 -4 -22 378.47 77.46
4 -4 -21 -16.83 34.32
4 -4 -20 149.22 44.19
4 -4 -19 50.09 30.19
4 -4 -18 291.23 57.1
4 -4 -17 140.77 44.34
4 -4 -16 89.76 36.71
4 -4 -15 794.38 87.52
4 -4 -14 5.94 17.68
4 -4 -13 414.74 59.98
4 -4 -12 92.87 30.09
4 -4 -12 36.25 13.3
4 -4 -11 773.09 45.53
4 -4 -11 964.01 84.71
4 -4 -10 193.22 40.19
4 -4 -10 139.89 17.55
4 -4 -9 199.75 38.87
4 -4 -9 132.16 14.67
4 -4 -8 1464.73 98.03
4 -4 -8 1019.13 33.01
4 -4 -7 156.9 30.29
4 -4 -7 161 34.39
4 -4 -6 959.83 71.02
4 -4 -6 953.85 77.82
4 -4 -5 158.88 31.67
4 -4 -5 182.9 34.17
4 -4 -4 1182.04 77.28
4 -4 -4 1214.8 87.34
4 -4 -3 809.71 32.71
4 -4 -3 902.91 74.15
4 -4 -3 968.45 69.08
4 -4 -2 2616.4 72.62
4 -4 -2 2905.43 120.05
4 -4 -2 2766.02 131.91
4 -4 -1 4509.87 153.53
4 -4 -1 4332.35 108.68
4 -4 -1 4571.17 170.59
4 -4 0 82.84 24.22
4 -4 0 81.77 19.46
4 -4 1 3747.19 129.34
4 -4 2 247.83 33.09
4 -4 3 541.1 46.21
4 -4 4 205.69 30.44
4 -4 5 951.57 60.52
4 -4 6 696.16 51.17
4 -4 7 85.75 20
4 -4 7 108.25 29.06
4 -4 8 1333.97 70.04
4 -4 8 1315.07 86.51
4 -4 9 415.11 38.39
4 -4 9 334.55 48.08
4 -4 10 572.4 45.42
4 -4 10 622.22 62.99
4 -4 11 253.91 30.16
4 -4 11 249.52 42.88
4 -4 12 75.44 18.7
4 -4 12 137.94 34.13
4 -4 13 612.56 45.29
4 -4 13 582.01 67.94
4 -4 14 91.16 33.77
4 -4 15 672.48 75.63
4 -4 16 91.39 30.3
4 -4 17 119.51 37.61
4 -4 18 193.16 46.12
4 -4 19 109.2 38.4
4 -4 20 242 55.43
4 -4 21 43.52 29.71
4 -3 -23 297.17 67.24
4 -3 -22 5.05 21.65
4 -3 -21 155.83 52.72
4 -3 -20 122.62 43.46
4 -3 -19 179.31 46.47
4 -3 -18 366.56 64.58
4 -3 -17 326.73 60.18
4 -3 -16 432.3 65.64
4 -3 -15 24.65 22.43
4 -3 -14 1260.05 103.05
4 -3 -13 153.9 34.8
4 -3 -12 252.3 43.1
4 -3 -11 543.93 41.04
4 -3 -11 637.67 67.15
4 -3 -10 230.12 40.35
4 -3 -10 199.85 22.68
4 -3 -9 404.04 50.56
4 -3 -9 335.04 26.79
4 -3 -8 31.07 19.52
4 -3 -8 3.26 5.88
4 -3 -7 1817.39 93.87
4 -3 -7 1725.99 48.71
4 -3 -7 1921.17 105.67
4 -3 -6 182.46 30.23
4 -3 -6 131.81 9.54
4 -3 -6 166.95 31.32
4 -3 -5 1713.13 87.39
4 -3 -5 1604.9 93.23
4 -3 -4 655.91 24.41
4 -3 -4 788.86 58.25
4 -3 -4 658.7 58.82
4 -3 -3 1280.53 74.75
4 -3 -3 1326.35 83.79
4 -3 -2 509.96 47.3
4 -3 -2 491.94 46.09
4 -3 -2 517.24 52.93
4 -3 -2 514.96 20.65
4 -3 -1 -0.98 12.3
4 -3 -1 4.33 12.52
4 -3 -1 32.31 20.41
4 -3 -1 10.38 7.13
4 -3 0 261.3 33.52
4 -3 0 259.9 21.66
4 -3 1 1348.78 72.44
4 -3 1 1205.49 52.53
4 -3 2 1063 64.3
4 -3 2 1146.88 54.82
4 -3 3 1613.48 77.18
4 -3 3 1570.13 69.96
4 -3 4 208.56 28.43
4 -3 4 176.68 27.35
4 -3 5 2690.02 99.19
4 -3 5 2892.89 107.59
4 -3 6 72.63 17.5
4 -3 6 52.36 16.79
4 -3 7 173.57 24.14
4 -3 7 202.91 31.29
4 -3 8 238.91 36.19
4 -3 9 848.09 68.15
4 -3 10 237.14 39.95
4 -3 11 74.25 22.65
4 -3 12 1374.51 96.87
4 -3 13 72.34 29.81
4 -3 13 56.93 26.2
4 -3 14 486.87 62.58
4 -3 15 258.61 46.98
4 -3 16 332.2 53.97
4 -3 17 167.6 41.42
4 -3 18 144.07 39.07
4 -3 19 142.34 40.68
4 -3 20 36.21 26.12
4 -3 21 184.06 50.74
4 -3 22 9.67 21.95
4 -2 -24 107.32 48.39
4 -2 -23 -1.77 24.9
4 -2 -22 46.96 34.07
4 -2 -21 174.76 48.97
4 -2 -20 90.98 44.42
4 -2 -19 267.37 60.29
4 -2 -18 -3.04 18.61
4 -2 -17 445.66 68.05
4 -2 -16 66.68 28.52
4 -2 -15 270.78 50.21
4 -2 -14 333.86 54.92
4 -2 -13 708.63 73.18
4 -2 -12 680.35 70.21
4 -2 -11 277.16 43.56
4 -2 -10 2385.83 87.69
4 -2 -10 2688.75 130.36
4 -2 -9 -6.1 7.96
4 -2 -9 44.15 22.76
4 -2 -8 2559.45 79.28
4 -2 -8 2715.54 128.01
4 -2 -8 2623.1 121.53
4 -2 -7 573.11 54.5
4 -2 -7 585.88 48.72
4 -2 -7 581.08 26.31
4 -2 -7 559.01 32.03
4 -2 -7 615.75 58.58
4 -2 -6 1641.91 44.61
4 -2 -6 1675.35 81.19
4 -2 -6 1711.2 96.6
4 -2 -6 1737.9 92.34
4 -2 -5 949.52 61.07
4 -2 -5 961.14 33.07
4 -2 -5 951.41 71.7
4 -2 -5 947.04 66.47
4 -2 -4 7.27 13.01
4 -2 -4 10.04 6.36
4 -2 -4 -2.94 12.56
4 -2 -4 36.85 20.82
4 -2 -4 16.93 18.05
4 -2 -3 1935.64 87.35
4 -2 -3 1852.29 56.87
4 -2 -3 1856.04 47.55
4 -2 -3 2009.49 85.86
4 -2 -3 1914.57 92.76
4 -2 -3 1903.26 92.54
4 -2 -2 1393.73 72.16
4 -2 -2 1486.44 43.24
4 -2 -2 1350.01 74.74
4 -2 -2 1391.74 71.47
4 -2 -2 1460.19 79.87
4 -2 -1 1338.69 68.5
4 -2 -1 1343.29 52.89
4 -2 -1 1242.17 69.94
4 -2 -1 1357.94 45.82
4 -2 -1 1458.1 79.17
4 -2 0 473.26 40.79
4 -2 0 409.04 26.69
4 -2 0 346.78 27.66
4 -2 0 334.56 38.65
4 -2 0 470.32 40.23
4 -2 1 2060.58 84.58
4 -2 1 2150.17 73.44
4 -2 1 2201.15 70.84
4 -2 1 2161.39 85.44
4 -2 2 702.31 47.58
4 -2 2 594.03 39.09
4 -2 2 660.22 44.01
4 -2 3 171.07 24.31
4 -2 3 146.8 21.54
4 -2 4 1613.32 73.59
4 -2 4 1574.29 63.05
4 -2 5 243.28 31.87
4 -2 5 284.88 25.18
4 -2 6 1375.59 74.87
4 -2 7 1759.72 88.36
4 -2 8 1091.85 71.8
4 -2 9 2402.52 113.1
4 -2 10 52.43 23.15
4 -2 11 1333.82 89.57
4 -2 12 94.14 29.15
4 -2 13 460.44 56.75
4 -2 14 25.57 19.26
4 -2 15 138.74 33.98
4 -2 16 329.75 54.02
4 -2 17 -37.24 27.69
4 -2 17 18.78 22.43
4 -2 18 353.48 57.39
4 -2 19 23.61 25.94
4 -2 20 268.3 55.36
4 -2 21 53.05 33.11
4 -2 22 34.85 30.23
4 -2 23 9.84 26.45
4 -1 -24 45.12 40.43
4 -1 -23 233.13 65.05
4 -1 -22 121.49 43.71
4 -1 -21 -47.71 36.44
4 -1 -20 265.55 59.06
4 -1 -19 22.42 20.74
4 -1 -18 125.55 41.63
4 -1 -17 124.33 40.53
4 -1 -16 725.63 84.23
4 -1 -15 78.65 30.02
4 -1 -14 408.82 60.45
4 -1 -13 371.16 53.87
4 -1 -12 25.52 19.9
4 -1 -12 21.88 13.93
4 -1 -11 779.73 72.06
4 -1 -11 759.16 71.12
4 -1 -10 172.7 32.5
4 -1 -10 184.59 36.53
4 -1 -9 1097.01 80.94
4 -1 -9 971.44 73.89
4 -1 -9 995.34 49.14
4 -1 -8 1729.92 62.45
4 -1 -8 1735.67 98.57
4 -1 -8 1722.71 94.21
4 -1 -7 253.07 33.6
4 -1 -7 343.88 45.35
4 -1 -7 300.01 24.09
4 -1 -7 312.76 34.01
4 -1 -6 970.98 60.48
4 -1 -6 1003.64 42.77
4 -1 -6 1009.19 57.85
4 -1 -6 1102.31 69.38
4 -1 -6 1078.14 74.17
4 -1 -5 518.84 30.23
4 -1 -5 550.81 41.63
4 -1 -5 550.99 51.18
4 -1 -5 555.24 48.18
4 -1 -5 570.97 46.32
4 -1 -4 2383.91 88.48
4 -1 -4 2377.52 93.74
4 -1 -4 2459.71 70.44
4 -1 -4 2406.72 99.21
4 -1 -4 2426.46 102.12
4 -1 -3 143.55 26.22
4 -1 -3 141.24 23.77
4 -1 -3 101.11 14.55
4 -1 -3 112.85 19.6
4 -1 -3 96.63 20.79
4 -1 -2 -12.91 13.03
4 -1 -2 -3.12 6.76
4 -1 -2 10.88 9.49
4 -1 -2 12.13 8.05
4 -1 -2 -3.14 11.46
4 -1 -1 1087.76 56.86
4 -1 -1 1112.59 40.85
4 -1 -1 1160.27 45.22
4 -1 -1 1108.12 62.96
4 -1 -1 1068.45 56.96
4 -1 0 717.96 49.42
4 -1 0 742.39 38.2
4 -1 0 720.46 45.55
4 -1 1 250.3 27.11
4 -1 1 114.5 16.61
4 -1 2 50.03 13.29
4 -1 3 3204 101.7
4 -1 4 128.54 22.7
4 -1 5 829.44 55.36
4 -1 6 414.61 42.32
4 -1 7 754.01 56.54
4 -1 8 1229.27 75.12
4 -1 9 -8.61 15.01
4 -1 10 873.02 69.81
4 -1 11 37.04 19.22
4 -1 12 205.55 38.05
4 -1 13 617.66 65.19
4 -1 14 51.24 26.9
4 -1 15 1271.27 98.78
4 -1 16 -30.78 25.48
4 -1 17 19.67 18.87
4 -1 18 -0.83 17.91
4 -1 19 179.67 44.95
4 -1 19 269.29 52.81
4 -1 20 67.24 30.25
4 -1 20 73.18 31.34
4 -1 21 110.94 38.78
4 -1 22 331.67 62.4
4 -1 23 -4.26 21.31
4 0 -24 3.03 35.7
4 0 -23 299.46 74.78
4 0 -22 9.71 25.93
4 0 -21 253.21 64.97
4 0 -20 11.72 26.87
4 0 -19 170.34 49.42
4 0 -18 65.28 27.13
4 0 -17 203.31 53.3
4 0 -16 499.6 71.53
4 0 -15 20.56 18.28
4 0 -14 421.45 61.68
4 0 -14 387.49 55.91
4 0 -13 384.53 56.05
4 0 -13 317.79 49.53
4 0 -12 224.22 40.61
4 0 -12 249.62 41.74
4 0 -11 166.93 36.35
4 0 -11 135.86 32.17
4 0 -10 539.09 56.13
4 0 -10 558 57.35
4 0 -9 1942.99 104.54
4 0 -9 1988.56 104.87
4 0 -8 503.72 37.54
4 0 -8 401.48 47.7
4 0 -8 448.02 47.31
4 0 -7 2604.9 86.7
4 0 -7 2865.91 116.36
4 0 -7 2521.15 108.83
4 0 -7 2735.11 99.9
4 0 -6 260.28 34.76
4 0 -6 248.6 33.79
4 0 -6 277.98 32.22
4 0 -6 315.76 27.8
4 0 -6 269.03 27.05
4 0 -5 73.86 17.81
4 0 -5 92.88 22.06
4 0 -5 61.75 16.96
4 0 -5 91.88 15.25
4 0 -5 76.36 15.6
4 0 -4 1110.76 58.72
4 0 -4 1104.31 50.54
4 0 -4 1077.98 51.85
4 0 -4 1088.66 60.04
4 0 -3 971.53 48.93
4 0 -3 1001.06 48.45
4 0 -3 840.57 49.64
4 0 -3 961.58 54.25
4 0 -2 1341.3 58.82
4 0 -2 1332.01 32.98
4 0 -2 1229.81 60.1
4 0 -1 205.21 23.77
4 0 -1 165.63 19.98
4 0 -1 207.34 23.73
4 0 0 3783.42 106.07
4 0 0 3845.41 101.65
4 0 1 26.94 11.4
4 0 2 1809.5 70.9
4 0 3 311.21 30.94
4 0 4 521.42 40.54
4 0 5 102.31 20.68
4 0 6 315.78 35.13
4 0 7 3155.31 118.72
4 0 8 98.1 22.93
4 0 9 1684.88 91.44
4 0 10 545.12 54.18
4 0 11 380.11 35.34
4 0 11 440.05 49.8
4 0 12 69 21.55
4 0 12 61.13 16.3
4 0 13 543.77 45.53
4 0 13 605.4 63.19
4 0 14 365.32 39.54
4 0 14 385.94 52.78
4 0 15 22.97 18.22
4 0 15 34.43 13.86
4 0 16 666.8 72.79
4 0 17 242.4 46.71
4 0 18 433.43 65.64
4 0 19 173.2 43.71
4 0 20 62.49 28.32
4 0 21 281.89 56.93
4 0 21 339.18 60.6
4 0 22 38.6 31.5
4 0 22 -33.28 25.62
4 0 23 97.62 39.91
4 0 24 -17.11 21.51
4 1 -23 2 32.57
4 1 -22 127.57 50.39
4 1 -21 -50.14 42.99
4 1 -20 246.92 63.48
4 1 -19 234.89 58.99
4 1 -18 22.24 20.6
4 1 -17 657.65 86.13
4 1 -16 22.69 30.61
4 1 -16 11.04 16.1
4 1 -15 301.12 52.86
4 1 -15 281.94 47.44
4 1 -14 94.49 34.3
4 1 -14 89.04 27.41
4 1 -13 428.24 56.94
4 1 -12 16.74 13.74
4 1 -11 25.74 16.66
4 1 -10 758.4 68.24
4 1 -10 741.59 63.11
4 1 -9 251.78 37.33
4 1 -9 325.52 44.57
4 1 -8 1256.71 63.59
4 1 -8 1580.48 83.39
4 1 -8 1310.04 82.17
4 1 -7 207.58 33.14
4 1 -7 228.87 27.12
4 1 -6 3366.97 105.73
4 1 -6 3557.33 110.2
4 1 -6 3476.93 121.94
4 1 -5 819.26 48.17
4 1 -5 755.43 47.23
4 1 -5 705.82 36.63
4 1 -5 724.96 49.91
4 1 -4 2667.09 91.51
4 1 -4 2792.67 76.41
4 1 -4 2636.42 92.55
4 1 -3 4144.26 117.33
4 1 -3 3967.29 110.8
4 1 -2 74.28 14.92
4 1 -2 77.34 17.72
4 1 -1 1300.33 63.37
4 1 -1 1178.52 49.15
4 1 0 15.28 8.6
4 1 0 28.81 12.67
4 1 0 23.66 8.2
4 1 1 1257.51 61.14
4 1 2 1576.2 69.16
4 1 3 1441.55 68.05
4 1 4 5800.94 154.74
4 1 5 319.19 36.03
4 1 6 3372.07 122.38
4 1 7 366.5 40.95
4 1 8 505.61 48.86
4 1 9 955.52 60.91
4 1 9 953.79 69.36
4 1 10 250.43 38.25
4 1 10 250.17 33.6
4 1 11 226.31 34.75
4 1 11 225.62 32.88
4 1 12 70.56 24.8
4 1 12 -2.51 14.22
4 1 13 593.92 55.66
4 1 13 561.71 59.97
4 1 14 20.75 20.95
4 1 14 23.05 17
4 1 15 246.39 43.2
4 1 15 247.57 38.94
4 1 16 72.68 28.75
4 1 16 43.63 20.11
4 1 17 182.34 42.9
4 1 17 143.14 32.62
4 1 18 171.4 41.13
4 1 19 26.61 21.77
4 1 20 100.26 37.23
4 1 21 26.34 23.71
4 1 22 161.6 43.83
4 1 23 30.71 21.48
4 1 23 92.41 35.86
4 1 24 44.03 26.78
4 1 25 23.75 25.94
4 2 -23 153.33 53.06
4 2 -22 117.62 49.43
4 2 -21 122.2 47.67
4 2 -17 21.89 19.62
4 2 -16 396.54 54.46
4 2 -15 233.53 42.35
4 2 -14 194.72 39.82
4 2 -13 314.98 45.87
4 2 -12 -11.19 14.05
4 2 -11 667.26 59.91
4 2 -10 310.44 41.48
4 2 -8 3.05 9.44
4 2 -7 37.18 11.84
4 2 -6 41.37 12.53
4 2 -5 165.17 13.81
4 2 -4 76.48 10.49
4 2 -3 347.79 34.3
4 2 -3 283.21 15.11
4 2 -2 4037.91 124.14
4 2 -2 3873.84 95.94
4 2 -1 644.84 47.27
4 2 -1 610.61 29.66
4 2 0 830.97 54.94
4 2 0 651.92 45.25
4 2 0 757.67 28.69
4 2 1 3019.98 103.35
4 2 2 962.53 57.12
4 2 3 1488.04 72.68
4 2 4 22.95 12.06
4 2 5 22.16 15.93
4 2 6 32.38 15.51
4 2 7 103.4 22.13
4 2 7 137.55 27.92
4 2 8 231.73 33.49
4 2 8 244.07 35.51
4 2 9 2.05 11.82
4 2 9 5.13 14.23
4 2 10 1716.57 97.34
4 2 10 1896.79 98.57
4 2 11 238.42 37.99
4 2 11 277.01 39.7
4 2 12 355.47 45.16
4 2 12 320.03 45.56
4 2 13 43.96 20.46
4 2 13 12.21 13.13
4 2 14 221.78 39.46
4 2 14 267.42 43.07
4 2 15 263.61 44.67
4 2 15 286.58 45.52
4 2 16 51.29 23.29
4 2 16 38.81 18.18
4 2 17 522.63 65.24
4 2 17 541.15 68.63
4 2 18 9.55 18.58
4 2 18 73.97 30.25
4 2 19 297.2 54.97
4 2 20 16.62 23.12
4 2 21 165.26 43.64
4 2 22 70.04 35.77
4 2 23 -13.96 19.82
4 2 24 233.74 51.95
4 2 24 276.06 58.56
4 2 25 7.45 22.56
4 3 -18 -3.66 21.02
4 3 -17 114.14 31.89
4 3 -16 167.23 37.01
4 3 -15 223.16 39.79
4 3 -14 403.05 50.95
4 3 -13 9.3 14.59
4 3 -12 970.62 72.29
4 3 -9 417.15 32.43
4 3 -8 564.1 37.04
4 3 -4 387.06 24.68
4 3 1 531.83 43.74
4 3 2 4853.19 145.45
4 3 3 474.02 44.54
4 3 4 4771.6 148.44
4 3 5 2383.8 103.34
4 3 6 1722.15 89.35
4 3 6 1816.72 97.19
4 3 7 4767.86 156.69
4 3 7 4787.56 165.86
4 3 8 268.86 37.89
4 3 8 272.69 41.11
4 3 9 1387.16 86.36
4 3 9 1499.47 93.58
4 3 10 3.24 15.68
4 3 10 1.64 13.57
4 3 11 259.14 40.06
4 3 11 259.01 42.47
4 3 12 335.74 48.62
4 3 12 348.26 46.9
4 3 13 567.29 60.96
4 3 13 635.36 67.3
4 3 14 889.86 80.51
4 3 14 773.74 72.63
4 3 15 30.4 16.14
4 3 15 -7.75 23.41
4 3 16 470.15 62.92
4 3 16 430.11 59.6
4 3 17 16.54 15.45
4 3 17 46.58 24.76
4 3 18 85.01 29.97
4 3 18 121.63 36.77
4 3 19 100.33 33.78
4 3 19 72.79 28.36
4 3 20 34.01 27.93
4 3 21 159.24 43.25
4 3 22 -58.5 30.59
4 3 23 120.65 41.45
4 3 24 40.51 30.99
4 3 25 -14.51 24.5
4 4 -18 343.53 53.53
4 4 -17 172.52 38.71
4 4 -16 138.77 35.58
4 4 -15 446.12 55.72
4 4 -14 57.99 23.19
4 4 -10 772.96 39.99
4 4 -9 28.8 8.96
4 4 -4 153.36 19.09
4 4 -3 624.69 37.41
4 4 1 6750.35 119.13
4 4 2 407.62 41.96
4 4 3 653.94 53.55
4 4 4 637.48 52.57
4 4 5 537.6 55.01
4 4 5 560.09 51.04
4 4 6 16.88 14.97
4 4 6 58.93 18.9
4 4 7 76.05 20.65
4 4 7 96.44 25.29
4 4 8 3219.49 131.95
4 4 8 3371.2 149.01
4 4 9 51.54 21.74
4 4 9 -6.71 17.24
4 4 10 1300.92 86.25
4 4 10 1289.37 94.24
4 4 11 1081.63 88.52
4 4 11 1015.55 78.55
4 4 12 633.95 63.31
4 4 12 761.09 75.71
4 4 13 879.33 83.61
4 4 13 769.87 73.19
4 4 14 -5.24 18.32
4 4 14 -18.87 21.19
4 4 15 439.73 63.94
4 4 15 500.4 61.12
4 4 16 240.49 45.13
4 4 16 245.18 49.38
4 4 17 313.73 52.19
4 4 17 277.25 52.42
4 4 18 365.35 56.63
4 4 18 456.09 69.46
4 4 19 32.26 28.17
4 4 19 43.63 27.06
4 4 20 281.84 54.34
4 4 20 246.52 51.95
4 4 21 19.82 22
4 4 22 95.44 34.07
4 4 23 -15.14 22.11
4 4 24 138.4 49.42
4 5 -17 -8.32 17.83
4 5 -16 159.73 33.98
4 5 -15 -16.98 17.07
4 5 -10 36.17 10.52
4 5 -5 981.21 53.78
4 5 -4 808.57 48.93
4 5 -3 93.99 18.31
4 5 -3 79.66 10.41
4 5 1 177.88 19.45
4 5 2 881.22 64.11
4 5 2 823.89 38.77
4 5 3 1048.15 71.94
4 5 3 1077.87 42.82
4 5 4 264.52 38.77
4 5 4 263.16 42.82
4 5 4 300.15 23.38
4 5 5 1568.84 90
4 5 5 1607.15 102.56
4 5 6 530.72 61.88
4 5 6 585.1 56.08
4 5 7 958.33 81.86
4 5 7 908.63 70.77
4 5 8 20.67 15.91
4 5 8 31.93 21.68
4 5 9 286.35 41.7
4 5 9 295.61 47.57
4 5 10 346.7 45.9
4 5 10 321.15 49.28
4 5 11 461.68 63.51
4 5 11 295.59 45.16
4 5 12 648.83 66.63
4 5 12 734.95 79.27
4 5 13 283.13 44.99
4 5 13 296.96 51.41
4 5 14 233.16 42.82
4 5 14 304.49 55.22
4 5 15 436.98 65.86
4 5 15 364.75 54.7
4 5 16 23.46 21.46
4 5 16 42.5 24.07
4 5 17 105.03 32.82
4 5 17 91.72 37.22
4 5 18 10.05 16.23
4 5 18 39.85 25.61
4 5 19 89.05 35.02
4 5 19 170.92 48.15
4 5 20 -9.47 17.32
4 5 20 43.95 29.52
4 5 21 121.31 37.67
4 5 21 38.25 22.84
4 5 22 12.43 26.36
4 5 23 117.84 40.78
4 5 24 91.14 35.37
4 6 -16 3.56 15.37
4 6 -10 534.45 29.31
4 6 -5 672.05 49.11
4 6 -4 213.8 27.38
4 6 -3 42.08 14.2
4 6 -3 49.52 9.68
4 6 -2 468.89 30.76
4 6 1 457.82 36.49
4 6 2 3674.6 106.57
4 6 3 138.45 31.02
4 6 3 150.46 20.23
4 6 4 232.4 36.5
4 6 4 217.05 40.98
4 6 4 216.6 23.03
4 6 5 226.05 35.98
4 6 5 219.16 41.99
4 6 5 248.52 25.98
4 6 6 150.93 21.65
4 6 6 175.27 33.23
4 6 6 145.13 35.28
4 6 7 527.66 64.28
4 6 7 480.21 52.25
4 6 8 185.25 33.81
4 6 8 169.3 38.94
4 6 9 1229.47 86.35
4 6 9 1112.03 97.53
4 6 10 12.06 15.59
4 6 10 34.66 25.6
4 6 11 954.81 78.42
4 6 11 817.49 87.69
4 6 12 3.52 17.04
4 6 12 -34.02 18.5
4 6 13 248.57 50.56
4 6 13 273.19 47.47
4 6 14 185.68 38.24
4 6 14 191.19 45.68
4 6 15 301.01 49.32
4 6 15 249.62 53.9
4 6 16 271.12 47.54
4 6 16 332.82 63.93
4 6 17 13.91 16.58
4 6 17 -43.14 26.93
4 6 18 459 66.44
4 6 18 464.11 76.5
4 6 19 94.35 36.46
4 6 19 52.96 28.37
4 6 20 81.2 35.45
4 6 20 5.01 23.79
4 6 21 66.71 34.95
4 6 21 68.07 31.07
4 6 22 -47.8 31.63
4 6 22 13.83 24.7
4 6 23 81.38 38.1
4 6 24 -23.84 21.77
4 7 -5 386.26 41.37
4 7 -4 1590.85 83.6
4 7 -3 450.83 44.81
4 7 -3 422.91 30.65
4 7 -2 275.61 26.98
4 7 -1 648.1 43.9
4 7 1 496.74 43.63
4 7 2 30.81 12.46
4 7 3 755.26 51.52
4 7 3 926.85 71.22
4 7 4 260.17 50.1
4 7 4 292.33 41.88
4 7 4 318.19 33.18
4 7 5 931.02 74.45
4 7 5 894.16 85.36
4 7 5 899.13 56.21
4 7 6 1140.57 84.3
4 7 6 1095.72 98.71
4 7 6 1140.9 65.56
4 7 7 517.85 68.67
4 7 7 460.15 55.05
4 7 8 1026.27 81.62
4 7 8 943.89 92.68
4 7 9 168.83 34.03
4 7 9 171.45 42.36
4 7 10 341.42 58.62
4 7 10 329.99 48.93
4 7 11 25.19 19.87
4 7 11 -4.07 22.9
4 7 12 249.53 43.33
4 7 12 265.83 55.93
4 7 13 176.59 45.79
4 7 13 259.18 44.55
4 7 14 101.49 29.89
4 7 14 89.79 29.38
4 7 15 571.53 80.12
4 7 15 633.84 73.34
4 7 16 6.02 17.66
4 7 16 67.52 33.63
4 7 17 471.58 78.21
4 7 17 441.68 64.38
4 7 18 16.69 17.3
4 7 18 -9.13 21.35
4 7 19 157.01 43.65
4 7 19 124.91 45.98
4 7 20 115.65 39.17
4 7 20 98.22 41.24
4 7 21 40.98 27.91
4 7 21 25.59 26.21
4 7 22 210.17 53.64
4 7 22 110.56 44.89
4 7 23 -19.77 26.46
4 7 23 2.25 28.89
4 7 24 119.32 42.79
4 8 -6 17.02 13.48
4 8 -5 161.56 30.24
4 8 -4 198.15 32.54
4 8 -3 287.16 39.71
4 8 -3 248.28 26.45
4 8 -2 1878.46 96.64
4 8 -2 1674.3 73.77
4 8 3 566.53 58.63
4 8 4 238.43 40.34
4 8 4 287.5 55.71
4 8 5 1994.76 113.38
4 8 5 1710.09 125.93
4 8 6 65.34 33.25
4 8 6 107.58 31.76
4 8 7 173.56 34.42
4 8 7 175.61 46.64
4 8 8 318.3 48.84
4 8 8 335.09 59.13
4 8 9 362.99 61.9
4 8 9 360.99 50.72
4 8 10 142.97 35.08
4 8 10 129.6 40.17
4 8 11 106.2 30.86
4 8 11 68.72 31.17
4 8 12 906.54 82.49
4 8 12 845.42 97.35
4 8 13 20.61 35.87
4 8 13 -19.25 20.4
4 8 14 239.76 53.87
4 8 14 241.75 47.63
4 8 15 101.16 31
4 8 15 69.28 37.29
4 8 16 336.01 56.59
4 8 16 230.49 57.81
4 8 17 104.09 35.18
4 8 17 51.81 39.88
4 8 18 211.67 48.23
4 8 18 221.68 61.33
4 8 19 139.2 38.68
4 8 19 104.83 44.01
4 8 20 63.09 27.27
4 8 20 51.06 37.55
4 8 21 79.45 33.74
4 8 21 130.8 51.01
4 8 22 -9.54 23.08
4 8 22 46.11 32.42
4 8 23 71.27 32.07
4 8 23 69.94 38.75
4 8 24 10.72 24.84
4 9 -6 169.5 32.59
4 9 -5 50.54 18.24
4 9 -4 408.63 50.49
4 9 -3 1372.91 89.7
4 9 -2 272.48 44.57
4 9 3 33.64 21.14
4 9 4 600.86 63.5
4 9 4 529.72 74.33
4 9 5 368.89 53.68
4 9 5 356.31 62.88
4 9 6 1320.1 96.61
4 9 6 1196.76 111.18
4 9 7 686.88 71.85
4 9 7 667.51 86.84
4 9 8 58.99 26.82
4 9 8 3.39 26.07
4 9 9 273.56 59.13
4 9 9 296.17 48.47
4 9 10 24.87 22
4 9 10 24.59 24.93
4 9 11 234.04 45.29
4 9 11 313.25 64.68
4 9 12 6.74 15.19
4 9 12 19.47 28.62
4 9 13 416.42 59.88
4 9 13 313.19 64.07
4 9 14 203.51 58.44
4 9 14 156.09 40.08
4 9 15 206.84 56.47
4 9 15 231.3 46.65
4 9 16 180.94 56.21
4 9 16 186.89 45.15
4 9 17 133.7 49.14
4 9 17 75.24 32.25
4 9 18 176.3 45.79
4 9 18 221.47 64.06
4 9 19 47.89 28.87
4 9 19 -7.46 24.92
4 9 20 162.68 46.27
4 9 20 268.72 68.81
4 9 21 25.72 19.79
4 9 21 5.91 23.53
4 9 22 14.69 20.04
4 9 22 150.49 55.41
4 9 23 164.28 46.31
4 9 23 87.52 42.14
4 9 24 35.19 26.39
4 9 24 87.75 43.65
4 10 -6 674.53 67.04
4 10 -5 46.16 26.49
4 10 -4 1533.46 102.1
4 10 -3 281.03 44.9
4 10 -2 262.03 42.91
4 10 -1 588.74 61.42
4 10 3 731.83 71.76
4 10 4 54.11 25.6
4 10 4 62.46 34.38
4 10 5 525.31 63.64
4 10 5 542.5 79.56
4 10 6 149.97 39.73
4 10 6 112.29 44.54
4 10 7 859.07 82.3
4 10 7 765.76 95.79
4 10 8 890.42 104.37
4 10 8 902.01 83.29
4 10 9 154.34 37.79
4 10 9 169.38 50.65
4 10 10 900.98 85.86
4 10 10 811.31 103.13
4 10 11 179.2 42.8
4 10 11 148.02 47.45
4 10 12 483.17 65.08
4 10 12 394.42 77.93
4 10 13 178.67 41.46
4 10 13 171.3 51.42
4 10 14 99.41 45.99
4 10 14 137.02 39.8
4 10 15 251.38 61.3
4 10 15 346.04 61.56
4 10 16 68.63 40.6
4 10 16 63.9 31.81
4 10 17 299.84 69.9
4 10 17 230.26 49.77
4 10 18 4.59 21.44
4 10 18 51.62 45.79
4 10 19 133.99 42.59
4 10 19 132.63 48.73
4 10 20 -2.46 23.6
4 10 20 27.05 32.78
4 10 21 0.03 20.66
4 10 21 67.33 44.48
4 10 22 92.29 39.9
4 10 22 197.4 63.2
4 11 -6 31.56 25.81
4 11 -5 379.21 54.63
4 11 -4 410.03 56.76
4 11 -3 209.17 41.71
4 11 -2 538.36 63.98
4 11 -1 140.6 36.72
4 11 0 404.51 53.58
4 11 3 319.98 52.1
4 11 4 407.83 58.5
4 11 4 394.26 74.37
4 11 5 390.97 56.16
4 11 5 299.29 62.84
4 11 6 249.23 49.02
4 11 6 211.9 60.3
4 11 7 559.97 68.72
4 11 7 464.52 80.12
4 11 8 132.33 46.34
4 11 8 71.73 30.68
4 11 9 361.09 57.16
4 11 9 301.39 66.5
4 11 10 31.6 35.7
4 11 10 28.29 23.82
4 11 11 357.85 58.39
4 11 11 272.43 68.43
4 11 12 414.94 81.3
4 11 12 392.29 61.86
4 11 13 45.85 28.44
4 11 13 55.23 39.64
4 11 14 354.78 60.31
4 11 14 260.95 68.28
4 11 15 85.72 38.87
4 11 15 91.58 33.23
4 11 16 154.19 40.93
4 11 16 124.99 46.61
4 11 17 241.39 51.31
4 11 17 248.85 66.46
4 11 18 109.77 42.68
4 11 18 98.76 38.8
4 11 19 112.73 41.88
4 11 19 129.6 57.73
4 11 20 -32.46 43.85
4 11 21 45.38 31.96
4 12 -5 87.82 31.1
4 12 -4 96.17 35.12
4 12 -3 196.3 39.65
4 12 -2 4.16 15.62
4 12 -1 196.38 43.61
4 12 0 101.83 34.52
4 12 3 269.75 50.61
4 12 4 237.07 47.98
4 12 5 80.28 34.44
4 12 5 -5.69 25.72
4 12 6 310.87 52.91
4 12 6 203 51.61
4 12 7 1.23 37.79
4 12 7 29.53 24.84
4 12 8 152.71 39.81
4 12 8 126.09 45.12
4 12 9 144.04 36.72
4 12 9 192.18 58.89
4 12 10 178.89 55.88
4 12 10 161.33 42.66
4 12 11 222.91 57.29
4 12 11 203.4 48.92
4 12 12 22.24 24.73
4 12 12 32.23 30.73
4 12 13 310.53 57.41
4 12 13 338.09 78.17
4 12 14 18.95 20.49
4 12 14 -54.45 42.67
4 12 15 170.68 59.01
4 12 15 225.64 50.97
4 12 16 -1.07 24.92
4 12 16 38.88 25.73
4 12 17 250.96 56.04
4 12 17 282.45 78.91
4 12 18 65.76 35.15
4 13 -5 161.4 41.41
4 13 -4 135.52 36.43
4 13 -3 93.46 34.33
4 13 -2 482.81 69.27
4 13 -1 82.22 36.56
4 13 0 121.17 34.27
4 13 1 103.54 38.6
4 13 3 322.25 54.9
4 13 4 119.12 37.44
4 13 5 190.67 55.2
4 13 5 275.68 54.03
4 13 6 199.19 62.87
4 13 6 325.08 57.45
4 13 7 177.15 45.5
4 13 7 84.95 48.81
4 13 8 331.25 58.21
4 13 8 243.07 65.18
4 13 9 44.2 31.57
4 13 9 6.59 26.83
4 13 10 274.01 73.35
4 13 10 304.53 56.71
4 13 11 25.83 21.6
4 13 11 8.9 30.88
4 13 12 106.76 33.97
4 13 12 146.41 54.41
4 13 13 41.04 24.3
4 13 13 84.91 47.15
4 13 14 223.09 50.44
4 13 14 98.19 50.83
4 13 15 87.71 52.69
4 13 16 133.25 57.51
4 14 -5 138.04 39.52
4 14 -4 11.5 17.27
4 14 -3 64.99 28.01
4 14 -2 76.73 35.71
4 14 -1 145.28 47.02
4 14 0 205.78 47.23
4 14 1 164.56 48.54
4 14 2 416 64.06
4 14 2 502.82 72.37
4 14 3 131.14 38.72
4 14 3 134.91 43.56
4 14 4 271.39 52.6
4 14 5 149.69 43.04
4 14 6 82.85 49.43
4 14 6 143.01 40.91
4 14 7 -17.26 34.72
4 14 7 67.87 30.98
4 14 8 123.59 38.76
4 14 8 93.12 37.22
4 14 9 116.97 40.43
4 14 9 127.63 39.15
4 14 10 26.21 43.87
4 14 10 17.76 22.68
4 14 11 46.55 26.29
4 14 12 55.23 42.14
4 14 13 79.22 46.23
4 15 -4 133.59 44.55
4 15 -3 165.02 43.4
4 15 -2 162.5 50.06
4 15 -1 223.09 53.75
4 15 0 76.63 34.96
4 15 1 295.25 59.62
4 15 2 106.07 38.45
4 15 2 151.19 43.46
4 15 3 193.3 48.59
4 15 3 264.22 59.02
4 15 4 307.91 56.77
4 15 4 251.37 54.82
4 15 5 219.39 51.84
4 15 6 287.94 57.47
4 15 7 25.58 28.76
4 15 8 270.53 78.99
4 15 9 76.18 45.64
4 15 10 150.21 54.11
4 16 1 81.72 36.31
4 16 2 180.82 51.1
5 -14 0 110.36 51.74
5 -14 1 104.12 41.26
5 -13 -4 144.89 48.24
5 -13 -3 154.59 54.39
5 -13 -2 210.44 52.96
5 -13 -1 25.08 25.07
5 -13 0 96.12 36.19
5 -13 1 52.77 27.78
5 -13 2 150.4 45.29
5 -13 3 71.86 38.94
5 -13 4 45.57 32.26
5 -13 5 88.46 36.27
5 -13 6 19.62 19.09
5 -13 7 55.19 28.01
5 -13 8 65.43 37.1
5 -13 9 174.74 49.5
5 -12 -13 54.53 44.59
5 -12 -12 229.99 65.29
5 -12 -11 132.05 53.59
5 -12 -10 400.94 81.27
5 -12 -9 32.77 41.36
5 -12 -5 99.84 41.16
5 -12 -4 163.24 47.21
5 -12 -3 502.7 74.66
5 -12 -2 55.64 35.45
5 -12 -1 340.24 62.71
5 -12 0 135.53 44.44
5 -12 1 189.58 51.41
5 -12 2 99.68 36.92
5 -12 3 64.73 35.53
5 -12 4 219.47 51.92
5 -12 5 38.32 25.94
5 -12 6 329.77 62.3
5 -12 7 53.75 27.83
5 -12 7 17.9 26.66
5 -12 8 117 37.75
5 -12 8 115.04 40.36
5 -12 9 -6.13 24.01
5 -12 9 -19.15 21.47
5 -12 10 57.4 27.12
5 -12 10 67.84 31.07
5 -12 11 32.62 26.99
5 -12 11 64.14 29.04
5 -11 -15 -4.87 22.45
5 -11 -14 97.86 44.58
5 -11 -13 173.75 53.07
5 -11 -12 30.66 29.98
5 -11 -11 171.43 55.28
5 -11 -10 89.97 48.87
5 -11 -9 326.29 72.31
5 -11 -8 299.56 68.08
5 -11 -6 421.27 69.3
5 -11 -5 60.25 31.15
5 -11 -4 600.39 82.02
5 -11 -3 7.92 19.53
5 -11 -2 239.6 53.59
5 -11 -1 258.06 54.13
5 -11 0 344.03 60.54
5 -11 1 175.89 45.15
5 -11 2 141.14 41.95
5 -11 3 517.39 73.37
5 -11 3 393.84 56.26
5 -11 4 -4.55 27.26
5 -11 4 20.92 27.01
5 -11 5 168.2 40.68
5 -11 5 230.05 51.22
5 -11 6 47.93 32.79
5 -11 6 34.08 27.02
5 -11 7 145.02 41.03
5 -11 7 85.9 36.12
5 -11 8 47.1 25.23
5 -11 8 35.95 26.26
5 -11 9 -15.57 16.38
5 -11 9 -0.82 20.96
5 -11 10 160.35 48.6
5 -11 10 258.77 56.68
5 -11 11 77.73 30.52
5 -11 11 75.08 42.16
5 -11 12 165.36 46.43
5 -11 12 99.75 41.6
5 -11 13 137.6 43.65
5 -10 -17 216.96 61.12
5 -10 -16 26.32 36.3
5 -10 -15 114.08 43.6
5 -10 -14 144.31 53.63
5 -10 -13 49.63 32.01
5 -10 -12 555.99 90.17
5 -10 -11 109.4 44.87
5 -10 -10 307.3 68.84
5 -10 -9 425.75 75.93
5 -10 -8 75.15 42.16
5 -10 -7 376.2 63.71
5 -10 -7 368.09 72.96
5 -10 -6 46.37 31.36
5 -10 -6 65.07 39.3
5 -10 -5 435.42 67.37
5 -10 -4 112.85 37.49
5 -10 -3 388.37 63.09
5 -10 -2 182.58 43.97
5 -10 -1 120.65 37.65
5 -10 0 366.38 59.89
5 -10 1 29.85 14.03
5 -10 1 58.63 28.61
5 -10 2 202.4 37.8
5 -10 2 289.8 55.6
5 -10 3 39.08 25.49
5 -10 3 37.09 20.93
5 -10 4 309.86 50.45
5 -10 4 372.64 62.7
5 -10 5 16.86 18.18
5 -10 5 17.89 17.51
5 -10 6 78.63 32.8
5 -10 6 163.71 39.97
5 -10 7 321.95 57.76
5 -10 7 306.97 55.72
5 -10 8 67.62 29.29
5 -10 8 24.07 26.42
5 -10 9 107.12 37.01
5 -10 9 167.45 43.14
5 -10 10 49.15 25.93
5 -10 10 10.67 29.77
5 -10 11 57.55 27.12
5 -10 11 137.75 43.43
5 -10 12 87.46 36.69
5 -10 12 30.75 21.21
5 -10 13 43.27 22.31
5 -10 13 -25.25 37.12
5 -10 14 53.39 28.87
5 -10 14 135.99 48.6
5 -9 -19 167.11 53.31
5 -9 -18 50.79 38.27
5 -9 -17 459.31 85.38
5 -9 -16 35.35 31.96
5 -9 -15 498.85 83.96
5 -9 -14 23.91 29.29
5 -9 -13 250.45 59.43
5 -9 -12 65.57 37.99
5 -9 -11 147.3 45.46
5 -9 -10 434.46 75.53
5 -9 -9 324.78 65
5 -9 -8 537.36 81.82
5 -9 -7 20.11 26.61
5 -9 -7 25 32.83
5 -9 -6 529.55 71.53
5 -9 -6 515.26 77.17
5 -9 -5 42.48 26.55
5 -9 -5 39.46 34.48
5 -9 -4 115.07 37.27
5 -9 -3 56.8 24.91
5 -9 -2 32.75 22.25
5 -9 -1 98.8 22.51
5 -9 -1 69.82 27.86
5 -9 0 35.13 18.93
5 -9 0 59.95 29.61
5 -9 1 151.54 35.86
5 -9 1 114.48 30.07
5 -9 2 221.52 43.13
5 -9 2 194.34 36.53
5 -9 3 155.14 40.71
5 -9 3 163.31 34.87
5 -9 4 419.16 62.45
5 -9 4 331.2 48.44
5 -9 5 52.48 27.77
5 -9 5 31.5 19.24
5 -9 6 592.11 73.59
5 -9 6 482.54 62.97
5 -9 7 -5.37 20.64
5 -9 7 -14.47 22.59
5 -9 8 144.05 39.76
5 -9 8 161.89 40.79
5 -9 9 114.67 39.05
5 -9 9 31.85 23.83
5 -9 10 169.4 39.46
5 -9 10 188.35 42.24
5 -9 11 166.12 45.34
5 -9 12 45.5 26.27
5 -9 13 319.88 63.3
5 -9 14 -5.19 20.77
5 -9 15 157.01 47.43
5 -8 -20 3.88 25.61
5 -8 -19 -7.17 25.38
5 -8 -18 90.94 43.25
5 -8 -17 45.25 34.18
5 -8 -16 198.23 53.82
5 -8 -15 158.6 50.83
5 -8 -14 284.57 60.28
5 -8 -13 183.87 48.99
5 -8 -12 231.62 54.73
5 -8 -11 157.67 42.38
5 -8 -10 21.42 28.09
5 -8 -9 630.56 86.6
5 -8 -8 23.19 24.07
5 -8 -8 44.9 34.81
5 -8 -7 96.37 35.29
5 -8 -7 115.46 35.19
5 -8 -6 100.5 34.52
5 -8 -6 106.96 37.18
5 -8 -5 583.14 69.59
5 -8 -5 728.41 88.43
5 -8 -4 207.65 55.68
5 -8 -4 219.63 46.45
5 -8 -3 194.16 25.15
5 -8 -3 231.37 46.93
5 -8 -2 1400.64 71.49
5 -8 -2 1658.96 115.9
5 -8 -1 147.68 41.6
5 -8 -1 125.13 25.57
5 -8 0 404.53 58.38
5 -8 0 384.14 42.96
5 -8 1 791.31 63.07
5 -8 1 866.09 82.55
5 -8 2 92.34 30.17
5 -8 2 100.06 28.73
5 -8 3 250.97 47.41
5 -8 3 197.09 36.74
5 -8 4 21.52 20.35
5 -8 4 11.54 15.12
5 -8 5 471.49 56.44
5 -8 5 526.86 66.88
5 -8 6 54.32 27.03
5 -8 6 79.81 25.24
5 -8 7 264.64 50
5 -8 7 288.26 51.68
5 -8 8 129.6 33.77
5 -8 9 65.56 27.74
5 -8 10 221.7 50.26
5 -8 11 59.81 27.53
5 -8 12 238.38 55.16
5 -8 13 -22.32 23.92
5 -8 14 141.63 41.66
5 -8 15 29.79 22.87
5 -8 16 11.77 22.69
5 -7 -21 215.05 59.77
5 -7 -20 -24.62 31.39
5 -7 -19 233.52 60.09
5 -7 -18 40.41 35.99
5 -7 -17 231.49 55.66
5 -7 -16 112.42 43.42
5 -7 -15 186.64 50.95
5 -7 -14 262.25 57.04
5 -7 -13 -7.77 19.68
5 -7 -12 353.76 62.76
5 -7 -11 128.56 39.51
5 -7 -10 62.17 26.99
5 -7 -9 206.94 46.78
5 -7 -8 45.1 19.97
5 -7 -8 77.18 35.13
5 -7 -7 487.77 63.91
5 -7 -7 578.9 77.43
5 -7 -6 286.4 49.19
5 -7 -6 350.07 62.2
5 -7 -5 983.27 87.28
5 -7 -5 1118.26 102.8
5 -7 -4 49.39 12.04
5 -7 -4 83.03 34.76
5 -7 -4 74.29 36.46
5 -7 -3 603.98 40.21
5 -7 -3 720.44 72.97
5 -7 -3 791.75 87.8
5 -7 -2 127.19 22.47
5 -7 -2 163.19 36.76
5 -7 -1 330.87 34.36
5 -7 -1 365.6 52.38
5 -7 0 388.43 55.27
5 -7 0 221.05 30.34
5 -7 1 403.83 42.84
5 -7 1 533.01 62.61
5 -7 2 705.57 71.61
5 -7 2 691.69 58.7
5 -7 3 47.34 25.78
5 -7 3 -17.96 17.51
5 -7 4 729.33 75.03
5 -7 4 717.53 64.1
5 -7 5 4.12 15.54
5 -7 5 6.59 17.32
5 -7 6 15.01 19.04
5 -7 7 16.37 20.81
5 -7 8 208.61 42
5 -7 9 98.76 32.66
5 -7 10 46.31 25.39
5 -7 11 186.82 43.76
5 -7 12 67.91 27.63
5 -7 13 199.17 46.05
5 -7 14 20.04 23.32
5 -7 15 229.6 54.7
5 -7 16 190.3 50.05
5 -7 17 -38.31 26.65
5 -7 18 238.97 58.5
5 -6 -21 54.05 32.47
5 -6 -20 178.42 55.65
5 -6 -19 10.32 21.7
5 -6 -18 248.24 60.8
5 -6 -17 13.09 19.28
5 -6 -16 45.14 23.71
5 -6 -15 424.11 69.8
5 -6 -14 97.7 34.28
5 -6 -13 430.66 66.74
5 -6 -12 43.85 24.45
5 -6 -11 522.29 72.77
5 -6 -10 140.6 41.81
5 -6 -9 139.02 41.97
5 -6 -8 207.06 40.33
5 -6 -8 263.39 51.47
5 -6 -7 500.23 61.96
5 -6 -7 596.23 73.7
5 -6 -6 427.4 57.77
5 -6 -6 383.56 61.76
5 -6 -5 89.35 28.95
5 -6 -5 65.22 24.96
5 -6 -4 513.79 28.04
5 -6 -4 657.89 67.5
5 -6 -4 735.36 80.24
5 -6 -3 242.46 22.47
5 -6 -3 295.82 46.14
5 -6 -3 351.38 58
5 -6 -2 561.1 39.08
5 -6 -2 734.69 70.36
5 -6 -2 718.73 77.22
5 -6 -1 922.78 53.78
5 -6 -1 969.94 79.44
5 -6 0 80.74 27.47
5 -6 0 73.21 17.47
5 -6 1 784.57 56
5 -6 1 842.05 74.56
5 -6 2 89.6 21.97
5 -6 2 77.13 25.78
5 -6 3 48.77 23.22
5 -6 3 97.91 26.17
5 -6 4 836.39 67.34
5 -6 5 55.28 21.2
5 -6 6 211.5 37.57
5 -6 7 16.2 20.08
5 -6 8 575.48 65.03
5 -6 9 24.45 18.8
5 -6 10 327.64 54.91
5 -6 11 394.07 58.74
5 -6 12 255.01 51.71
5 -6 13 242.96 50.53
5 -6 14 -15.24 25.01
5 -6 15 202.89 46.79
5 -6 16 89.76 34.81
5 -6 17 61.51 29.55
5 -6 18 71.2 39.53
5 -6 19 8.42 26.86
5 -5 -22 12.4 30.47
5 -5 -21 28.98 26.17
5 -5 -20 229.02 61
5 -5 -19 92.69 39.84
5 -5 -18 164.41 49.94
5 -5 -17 125.65 42.52
5 -5 -16 601.68 80.66
5 -5 -15 17.29 22.83
5 -5 -14 1002.34 100.31
5 -5 -13 455.68 65.66
5 -5 -12 727.11 81.44
5 -5 -11 653.23 75.88
5 -5 -10 57.62 25.7
5 -5 -9 617.39 72.39
5 -5 -8 9.5 15.9
5 -5 -8 32.75 23.09
5 -5 -7 908.43 78.12
5 -5 -7 874.3 83.58
5 -5 -6 145.3 31.43
5 -5 -6 172.66 42.03
5 -5 -5 369.5 49.54
5 -5 -5 372.18 54.71
5 -5 -4 300.04 43.15
5 -5 -4 243.01 17.18
5 -5 -4 320.67 50.74
5 -5 -3 159.68 17.42
5 -5 -3 169.06 33.33
5 -5 -3 160.31 36.54
5 -5 -2 213.9 36.27
5 -5 -2 194.09 21.07
5 -5 -2 243.34 43.07
5 -5 -1 28.75 17.55
5 -5 -1 6.77 7.55
5 -5 0 420.58 51.22
5 -5 0 414.52 36.79
5 -5 1 165.63 32.95
5 -5 1 151.38 24.29
5 -5 2 352 37.79
5 -5 3 204.2 31.51
5 -5 3 184.1 28.82
5 -5 4 165.8 29.14
5 -5 4 172.77 28.59
5 -5 5 638.53 56.43
5 -5 5 645.12 58.87
5 -5 6 19.37 15.32
5 -5 6 27.36 18.07
5 -5 7 788.88 61.64
5 -5 7 721.18 66.75
5 -5 8 19.64 14.03
5 -5 8 6.9 16.7
5 -5 9 926.91 66.35
5 -5 9 858.43 77.63
5 -5 10 556.96 50.79
5 -5 10 499.44 61.26
5 -5 11 609.95 52.31
5 -5 11 662.13 72.44
5 -5 12 697.08 76.07
5 -5 13 24.93 18.91
5 -5 14 532.98 70.68
5 -5 15 102.92 38.5
5 -5 16 193.57 49.25
5 -5 17 -45.11 29.52
5 -5 18 231.91 51.11
5 -5 19 29.99 26.98
5 -5 20 35.47 20.72
5 -4 -22 96.33 46.22
5 -4 -21 136.6 48.47
5 -4 -20 209.11 53.76
5 -4 -19 211.04 52.3
5 -4 -18 45.55 30.65
5 -4 -17 648.68 87.13
5 -4 -16 -14.27 25.29
5 -4 -15 325.57 58.61
5 -4 -14 73.83 32
5 -4 -13 370.08 59.44
5 -4 -12 870.78 86.88
5 -4 -11 552.72 69.76
5 -4 -10 1761.79 117.32
5 -4 -10 1334.32 48.22
5 -4 -9 12.51 6.09
5 -4 -9 39.55 20.7
5 -4 -8 1553.8 98.47
5 -4 -8 1667.46 111.97
5 -4 -7 43.33 22.15
5 -4 -7 77.86 27.1
5 -4 -6 301.62 41.51
5 -4 -6 322.9 47.89
5 -4 -5 717.66 64.22
5 -4 -5 717.99 70.49
5 -4 -4 285.42 40.66
5 -4 -4 384.37 53.34
5 -4 -3 995.6 82.87
5 -4 -3 913.01 72.92
5 -4 -2 287.58 42.04
5 -4 -2 254.67 47.71
5 -4 -1 3585.49 137.99
5 -4 -1 3480.51 141.55
5 -4 -1 3581.38 158.07
5 -4 0 501.02 50.57
5 -4 0 381.11 49.58
5 -4 1 350.68 41.86
5 -4 1 306.28 28.96
5 -4 2 1144.24 74.45
5 -4 2 1069.94 56.65
5 -4 3 160.68 31.03
5 -4 3 150.15 23.71
5 -4 4 650.71 54.96
5 -4 4 661.47 50.97
5 -4 5 315.84 38.7
5 -4 5 293.65 37.2
5 -4 6 924.9 64.31
5 -4 6 1009.55 70.48
5 -4 7 486.6 47.27
5 -4 7 373.68 45.87
5 -4 8 502.61 47.49
5 -4 8 546.33 55.92
5 -4 9 1537.26 83.04
5 -4 9 1489.42 95.53
5 -4 10 144.44 27.29
5 -4 10 153.56 32.85
5 -4 11 740.85 57.11
5 -4 11 666.88 69.1
5 -4 11 728.34 74.51
5 -4 12 23.42 14.8
5 -4 12 50.42 25.65
5 -4 13 167.58 28.21
5 -4 13 258.27 49.21
5 -4 14 215.4 47.1
5 -4 15 342 59.01
5 -4 16 246.97 51.63
5 -4 17 -7.8 24.85
5 -4 18 456.38 70.59
5 -4 19 -42.77 32.59
5 -4 20 177.94 48.91
5 -3 -23 96.7 42.5
5 -3 -22 16.94 30.7
5 -3 -21 14.82 26.68
5 -3 -20 211.44 52.36
5 -3 -19 -8.37 27.93
5 -3 -18 184.9 48.02
5 -3 -17 54.36 32.89
5 -3 -16 174.47 44.55
5 -3 -15 130.36 37.75
5 -3 -14 79.74 29.15
5 -3 -13 660.79 75.44
5 -3 -12 57.89 25.19
5 -3 -11 275.1 46.27
5 -3 -11 281.53 28.69
5 -3 -10 402.71 31.23
5 -3 -10 550.99 63.11
5 -3 -9 177.72 35.61
5 -3 -9 130.13 15.79
5 -3 -8 184 35.68
5 -3 -8 187.36 34.12
5 -3 -8 169.11 16.08
5 -3 -7 293 17.81
5 -3 -7 339.17 42.05
5 -3 -7 434.43 52.39
5 -3 -6 1432.75 85.58
5 -3 -6 1274.11 33.1
5 -3 -6 1479.55 95.7
5 -3 -5 55.98 19.39
5 -3 -5 29.42 6.63
5 -3 -5 45.33 21.1
5 -3 -4 3106.34 78.66
5 -3 -4 3391.15 131.51
5 -3 -4 3295.03 143.62
5 -3 -3 363.52 41.89
5 -3 -3 346.36 42.12
5 -3 -3 375.43 18.95
5 -3 -3 392.14 46.03
5 -3 -3 339.92 45.06
5 -3 -2 891.59 65.33
5 -3 -2 1020.8 69.81
5 -3 -2 993.37 35.96
5 -3 -2 978.24 76.04
5 -3 -2 892.69 67.48
5 -3 -1 1037.61 69.49
5 -3 -1 1105.89 43.42
5 -3 -1 1019.22 76.61
5 -3 -1 1180.56 76.28
5 -3 -1 1002.04 69.01
5 -3 0 899.88 63.62
5 -3 0 900.35 43.13
5 -3 0 772 57.91
5 -3 1 1340.89 75.84
5 -3 1 1273.02 57.25
5 -3 2 86.25 18.28
5 -3 2 91.15 22.12
5 -3 3 3470.23 125.52
5 -3 3 3221.4 110.02
5 -3 4 113.32 23.21
5 -3 4 123.12 23.82
5 -3 5 371.34 39.18
5 -3 5 427.21 43.34
5 -3 6 406.23 40.17
5 -3 6 333.32 38.7
5 -3 7 92.44 19.9
5 -3 7 117.24 24.48
5 -3 8 131.3 28.41
5 -3 9 130.25 29.42
5 -3 10 717.68 67.69
5 -3 11 71.56 25.19
5 -3 12 205.94 40.95
5 -3 13 139.04 35.17
5 -3 14 88.22 30.16
5 -3 15 203.44 42.28
5 -3 15 267.09 48.43
5 -3 16 64.74 30.32
5 -3 17 245.26 49.76
5 -3 18 65.12 30.84
5 -3 19 88.79 32.93
5 -3 20 76.94 31.62
5 -3 21 28.11 25.74
5 -2 -23 166.16 59.83
5 -2 -22 39.75 34.97
5 -2 -21 167.09 54.4
5 -2 -20 7.8 23.98
5 -2 -19 161.64 48.64
5 -2 -18 106.97 40.34
5 -2 -17 308.97 59.99
5 -2 -16 17.54 20.96
5 -2 -15 12.77 25.29
5 -2 -14 209.94 42.88
5 -2 -13 -4.88 16.18
5 -2 -12 252.29 45.19
5 -2 -11 660.74 68.22
5 -2 -10 961.05 53.67
5 -2 -10 1052.12 87.82
5 -2 -10 1118.32 86.8
5 -2 -9 656.41 68.95
5 -2 -9 528.3 37.49
5 -2 -9 552.51 61.51
5 -2 -8 -10.68 13.19
5 -2 -8 11.47 12.09
5 -2 -8 5.29 5.14
5 -2 -8 15.69 18.58
5 -2 -7 595.89 29.98
5 -2 -7 602.46 52.45
5 -2 -7 531.92 59.38
5 -2 -7 577.98 57.6
5 -2 -6 252.54 38.34
5 -2 -6 238.25 19.29
5 -2 -6 227.76 33.23
5 -2 -6 205.85 36.19
5 -2 -5 23.1 12.84
5 -2 -5 32.4 9.14
5 -2 -5 30.35 15.05
5 -2 -5 46.28 21.15
5 -2 -5 9.06 13.43
5 -2 -4 527.43 51.37
5 -2 -4 529.04 32.91
5 -2 -4 564.68 49.26
5 -2 -4 518.59 52.85
5 -2 -4 552.13 57.13
5 -2 -4 501.76 27.29
5 -2 -3 614.29 54.85
5 -2 -3 664.92 38.71
5 -2 -3 725.54 33.6
5 -2 -3 652.31 53.23
5 -2 -3 700.52 60.44
5 -2 -3 574.22 56.37
5 -2 -2 682.41 54.65
5 -2 -2 711.37 34.82
5 -2 -2 633.3 52.56
5 -2 -2 621.41 56.25
5 -2 -2 669.32 58.57
5 -2 -1 600.23 34.16
5 -2 -1 506.56 47.28
5 -2 -1 506.85 34.22
5 -2 -1 507.16 50.84
5 -2 -1 513.14 49.09
5 -2 0 1715.12 84.47
5 -2 0 1699.65 66.83
5 -2 0 1746.69 86.07
5 -2 0 1558.37 89.66
5 -2 0 1764.86 64.93
5 -2 1 513.18 45.17
5 -2 1 474.32 36.02
5 -2 1 527.11 46.43
5 -2 2 844.53 57.07
5 -2 2 897.29 51.27
5 -2 2 906.06 58.27
5 -2 3 29.6 13.61
5 -2 3 37.89 17.83
5 -2 4 343.79 36.35
5 -2 4 366.94 34.65
5 -2 5 60.67 19.37
5 -2 5 103.25 18.88
5 -2 6 327.29 38.73
5 -2 6 334.9 29.52
5 -2 7 412.74 30.28
5 -2 7 351.28 41.35
5 -2 8 35.76 15.14
5 -2 9 1199.14 82.12
5 -2 10 38.06 19
5 -2 11 132.12 32.19
5 -2 12 88.31 27.41
5 -2 13 151.53 35.83
5 -2 14 81.95 28.77
5 -2 15 59.48 25.82
5 -2 16 342.16 56.06
5 -2 17 23.28 23.16
5 -2 18 103.03 35.86
5 -2 18 163.48 46.11
5 -2 19 74.16 32.63
5 -2 19 111.26 38.54
5 -2 20 23.68 18.38
5 -2 21 189.34 47.3
5 -2 22 4.44 22.84
5 -1 -23 -2.12 29.1
5 -1 -22 155.62 56.77
5 -1 -21 105.89 43.53
5 -1 -20 79.43 29.96
5 -1 -19 118.83 44.25
5 -1 -18 58.63 32.58
5 -1 -17 194.72 46.68
5 -1 -16 -14.12 23.91
5 -1 -15 1499.07 119.11
5 -1 -14 88.37 29.67
5 -1 -13 893.21 85.58
5 -1 -13 844.48 82.61
5 -1 -12 736.19 74.59
5 -1 -12 748.84 74.2
5 -1 -11 169.38 35.85
5 -1 -11 146.22 34.52
5 -1 -10 650.26 68.15
5 -1 -10 553.18 38.99
5 -1 -10 546.86 60.18
5 -1 -9 428.87 32.8
5 -1 -9 378.71 46.79
5 -1 -9 471.73 56.14
5 -1 -8 546.82 35.62
5 -1 -8 561.77 47.54
5 -1 -8 581.25 61.47
5 -1 -8 608.11 58.19
5 -1 -7 41.04 15.65
5 -1 -7 34.51 14.18
5 -1 -7 63.92 16.5
5 -1 -7 54.63 11.45
5 -1 -7 86.41 24.54
5 -1 -6 2470.51 106.96
5 -1 -6 2615.39 80.3
5 -1 -6 2642.86 102.93
5 -1 -6 2424.75 117.66
5 -1 -6 2600.98 115.16
5 -1 -5 521.95 47.86
5 -1 -5 537.97 35.09
5 -1 -5 578.22 46.81
5 -1 -5 532.37 49.4
5 -1 -5 682.49 60.28
5 -1 -4 1141.54 63.79
5 -1 -4 910.57 60.87
5 -1 -4 1148.84 52.81
5 -1 -4 998.86 67.13
5 -1 -3 3211 117.6
5 -1 -3 3186.19 96.66
5 -1 -3 2949.74 85.17
5 -1 -3 3282.08 113.78
5 -1 -3 3144.6 120.26
5 -1 -3 3048.03 119.52
5 -1 -2 1530.94 77.13
5 -1 -2 1470.39 64.51
5 -1 -2 1503.88 79.91
5 -1 -2 1266.2 73.22
5 -1 -2 1388.97 55.71
5 -1 -1 1531.76 75.58
5 -1 -1 1460.11 58.2
5 -1 -1 1363.33 49.9
5 -1 -1 1369.01 75.92
5 -1 -1 1746.3 82.59
5 -1 0 627.2 38.96
5 -1 0 618.25 49.48
5 -1 1 1681.03 68.59
5 -1 1 1703.29 76.15
5 -1 2 2146.51 82.42
5 -1 3 680.26 48.3
5 -1 4 3570.92 120.39
5 -1 5 76.13 21.62
5 -1 6 1657.43 86.66
5 -1 7 139.42 27.5
5 -1 8 155.01 28.42
5 -1 9 864.32 67.46
5 -1 10 549.59 56.36
5 -1 11 563.12 59.84
5 -1 11 406.97 18.7
5 -1 12 117.05 26.36
5 -1 13 1160.89 91.21
5 -1 14 -8.91 17.82
5 -1 15 587.01 70.61
5 -1 16 51.62 24.96
5 -1 17 147.8 42.46
5 -1 18 120.48 37.5
5 -1 19 81.73 36.31
5 -1 20 261.98 56.84
5 -1 20 313.62 60.44
5 -1 21 -2.53 22.82
5 -1 21 -2.11 18.91
5 -1 22 55.4 29.57
5 -1 23 40.89 29.03
5 0 -23 49.72 40.94
5 0 -22 26.81 29.67
5 0 -21 97.9 47.4
5 0 -20 349.31 70.29
5 0 -19 45.85 32.14
5 0 -18 577.13 84.63
5 0 -17 49.84 30.58
5 0 -16 178.81 44.54
5 0 -15 535.15 68.79
5 0 -15 533.81 71.77
5 0 -14 -36.2 22.49
5 0 -14 36.2 23.72
5 0 -13 457.69 62.52
5 0 -13 645.02 73.82
5 0 -12 9.27 13.81
5 0 -12 12.56 15.83
5 0 -11 584.09 63.55
5 0 -11 637.34 66.89
5 0 -10 15.31 14.08
5 0 -10 -1.57 15.04
5 0 -9 881.69 74.07
5 0 -9 833.43 70.16
5 0 -8 223.86 35.55
5 0 -8 225.87 32.19
5 0 -8 205.75 26.33
5 0 -8 314.97 45.77
5 0 -7 788.87 58.11
5 0 -7 785.2 48.28
5 0 -7 803.12 50.74
5 0 -7 743.37 62.98
5 0 -7 713.35 59.39
5 0 -6 211.58 36.58
5 0 -6 122.65 25.34
5 0 -6 139.55 27.02
5 0 -6 99.45 19.46
5 0 -6 120.58 19.17
5 0 -5 161.75 29.54
5 0 -5 126.9 26.93
5 0 -5 156.76 25.84
5 0 -5 130.31 20.57
5 0 -5 146.12 22.77
5 0 -4 1862.89 85.32
5 0 -4 1981.92 77.73
5 0 -4 1949.4 79.55
5 0 -4 1944.85 89.06
5 0 -3 99.3 21.93
5 0 -3 146.77 23.72
5 0 -3 124.59 24.56
5 0 -2 1067.21 58.62
5 0 -2 1017.46 32.81
5 0 -2 1036.09 54.15
5 0 -2 1060.86 61.57
5 0 -1 206.36 26.2
5 0 -1 190.79 26.7
5 0 -1 216.23 29.17
5 0 0 592.76 44.59
5 0 0 629.58 42.35
5 0 1 408.52 37.18
5 0 2 47.73 17.16
5 0 3 2444.45 94
5 0 4 50.5 17.31
5 0 5 715.1 54.8
5 0 6 468.78 46.86
5 0 7 414.27 46.82
5 0 8 338.78 41.59
5 0 9 172.85 33.04
5 0 10 710.77 63.99
5 0 11 41.09 18.43
5 0 12 462.95 56.32
5 0 13 19.3 21.56
5 0 14 271.21 45.19
5 0 15 42.42 22.33
5 0 16 164.13 38.35
5 0 17 197.28 42.01
5 0 18 52.43 28.56
5 0 19 398.48 63.57
5 0 20 9.85 20.16
5 0 21 14.22 28.14
5 0 22 102.35 40.08
5 0 22 28.53 20.3
5 0 23 -43.14 31.2
5 0 23 -4.4 19.65
5 1 -23 152.87 55.69
5 1 -22 92.72 43.99
5 1 -21 77.91 35.49
5 1 -20 58.96 40.83
5 1 -19 106.5 44.34
5 1 -18 3.02 24.79
5 1 -17 76.1 36.45
5 1 -17 108.84 34.75
5 1 -16 -34.74 29.24
5 1 -16 -26.97 27.07
5 1 -15 702.56 75.41
5 1 -15 782.11 89.7
5 1 -14 52.82 29.7
5 1 -14 104.58 31.13
5 1 -13 260.16 47.96
5 1 -13 222.24 41.59
5 1 -12 799.17 75.77
5 1 -12 804.38 79.12
5 1 -11 8.14 18.21
5 1 -11 -13.82 18.37
5 1 -10 177.46 34.05
5 1 -10 240.87 39.39
5 1 -9 367.15 37.5
5 1 -9 373.84 44.94
5 1 -9 366.43 46.53
5 1 -8 71.2 17.78
5 1 -8 48.57 17.4
5 1 -8 79.48 19.13
5 1 -7 235.54 33.54
5 1 -7 199.72 28.07
5 1 -6 144.67 25.57
5 1 -6 128.97 24.33
5 1 -6 171.76 21.11
5 1 -5 1847.11 80.29
5 1 -5 1963.08 71.03
5 1 -5 2001.28 88.61
5 1 -4 191.88 27.33
5 1 -4 208.95 28.39
5 1 -4 185.1 22.64
5 1 -3 2250.15 90.41
5 1 -3 2087.11 82.9
5 1 -2 1066.81 62.59
5 1 -2 964.99 52.48
5 1 -1 455.57 38.71
5 1 -1 462.26 35.43
5 1 0 2404.99 90.9
5 1 0 2131.98 74.92
5 1 1 765.24 50.3
5 1 2 1476.92 72.35
5 1 3 494.92 43.57
5 1 4 3169.23 115.59
5 1 5 42.52 16.47
5 1 6 76.6 20.54
5 1 7 248.9 36.18
5 1 8 602.8 57.04
5 1 9 170.29 32.96
5 1 10 36.21 17.05
5 1 11 937.03 76.08
5 1 12 206.95 38.9
5 1 13 151.81 32.72
5 1 14 802.52 65.57
5 1 14 811.3 77.64
5 1 15 53.04 26.32
5 1 15 94.2 27.43
5 1 16 187.52 40.03
5 1 17 160.2 41.14
5 1 18 59.9 26.71
5 1 19 25.77 23.8
5 1 20 76.5 34.65
5 1 21 125.24 38.22
5 1 22 23.7 26.75
5 1 23 141.9 47.61
5 1 24 -6.23 24.48
5 2 -23 64.7 44.83
5 2 -22 64.56 39.25
5 2 -21 -25.51 39.3
5 2 -20 261.64 65.36
5 2 -19 -12.03 26.47
5 2 -18 216.74 55.12
5 2 -18 226.58 47.92
5 2 -17 72.65 39.19
5 2 -17 101.47 34.68
5 2 -16 375.9 65.79
5 2 -16 306.99 51.44
5 2 -15 243.82 53.98
5 2 -15 242.72 45.16
5 2 -14 17.99 19.71
5 2 -13 457.34 58.32
5 2 -12 211.19 39.01
5 2 -11 410.37 50.75
5 2 -10 566.54 58.73
5 2 -9 706.48 50.67
5 2 -9 797.16 69.58
5 2 -8 3384.26 114.53
5 2 -8 3473.61 141.13
5 2 -7 500.09 41.49
5 2 -7 544.12 52.83
5 2 -6 1807.47 58.65
5 2 -6 1946.59 92.91
5 2 -5 2109.36 64.68
5 2 -5 2180.47 91.84
5 2 -4 70.94 18.76
5 2 -3 1724.15 71.04
5 2 -2 951.43 47.72
5 2 -1 3565.12 92.54
5 2 0 72.96 22.97
5 2 0 33.93 10.71
5 2 1 6406.81 172.8
5 2 2 680.05 54.16
5 2 3 1371.04 75.39
5 2 4 211.26 33.94
5 2 5 1875.67 93.48
5 2 6 1120.28 73.66
5 2 7 1469.13 85.74
5 2 8 3260.37 135.41
5 2 9 509.07 53.05
5 2 10 878.7 72.14
5 2 11 336.54 48.27
5 2 11 386.37 46.39
5 2 12 125.54 30.97
5 2 12 132.97 32.14
5 2 13 678.6 64.03
5 2 13 573.8 64.31
5 2 14 57.05 24.1
5 2 14 55.34 22.75
5 2 15 500.7 62.59
5 2 15 503.29 58.35
5 2 16 227.85 43.83
5 2 16 234.08 43.42
5 2 17 107.37 33.09
5 2 17 68.78 25.95
5 2 18 141.24 38.96
5 2 19 15.41 18.6
5 2 20 172.19 45.58
5 2 21 29.13 21.16
5 2 22 122.09 41.17
5 2 23 -33.79 26.82
5 3 -23 47.08 44.12
5 3 -22 -5.5 33.28
5 3 -21 92.73 47.9
5 3 -19 56.03 27.1
5 3 -18 203.13 43.3
5 3 -17 16.27 21.08
5 3 -16 538.97 65
5 3 -15 11.26 20.75
5 3 -14 906.03 80.18
5 3 -13 905.91 78.15
5 3 -12 699.63 65.05
5 3 -10 13.63 11.06
5 3 -9 1042.21 58.1
5 3 -8 15.1 9.51
5 3 -5 2520.28 57.83
5 3 -4 39.34 8.9
5 3 -2 2414.45 75.95
5 3 -1 23.28 8.57
5 3 0 1110 68.73
5 3 0 1056.88 34.64
5 3 1 1141.26 71.24
5 3 2 1634.06 85.71
5 3 3 1208.69 74.55
5 3 4 287.01 38.57
5 3 5 1399.19 81.98
5 3 6 694.3 59.34
5 3 7 1366.73 84.56
5 3 8 391.25 46.62
5 3 9 638.21 59.82
5 3 9 653.3 63.12
5 3 10 538.82 58.35
5 3 10 614.17 61.41
5 3 11 189.91 38.36
5 3 11 232.09 38.74
5 3 12 946.95 81.34
5 3 12 1126.17 87.32
5 3 13 39.41 24.59
5 3 13 15.99 20.83
5 3 14 1740.69 115.44
5 3 14 1690.94 112.65
5 3 15 64.28 25.46
5 3 15 28.95 19.64
5 3 16 262.27 46.68
5 3 16 243.19 46.69
5 3 17 374.34 56.07
5 3 17 398.7 60.79
5 3 18 34.15 23.32
5 3 18 88.06 33.42
5 3 19 176.69 43.06
5 3 20 2.78 18.23
5 3 21 125 38.11
5 3 22 8.13 20.57
5 3 23 80.07 31.67
5 4 -18 0.11 18.23
5 4 -17 208.95 43.36
5 4 -16 16.08 17.99
5 4 -15 227.6 43.18
5 4 -14 263.16 45.27
5 4 -10 1578.96 70
5 4 -9 111.98 20.44
5 4 -4 1227.74 51.04
5 4 1 779.39 61.67
5 4 2 3369.81 132.01
5 4 3 400.95 48.94
5 4 4 2341.22 110.46
5 4 5 1557.13 90.91
5 4 6 439.41 50.01
5 4 7 490.99 52.6
5 4 8 427.71 50.53
5 4 8 443.8 54.53
5 4 9 611.5 61.1
5 4 9 608.79 65.59
5 4 10 20.6 13.45
5 4 10 28.3 19.37
5 4 11 1064.4 85.16
5 4 11 1186.98 94.33
5 4 12 38.37 17.61
5 4 12 51.39 25.61
5 4 13 379.04 57.83
5 4 13 415.79 55.33
5 4 14 692.51 77.31
5 4 14 649.16 71.51
5 4 15 183.06 43.45
5 4 15 219.54 46.9
5 4 16 338.81 55.21
5 4 16 382.14 59.15
5 4 17 58.27 26.93
5 4 17 -24.01 25.22
5 4 18 254.53 50.48
5 4 18 157.68 43.41
5 4 19 -12 19.96
5 4 19 24.32 32.07
5 4 20 113.39 38.91
5 4 21 59.34 30.09
5 4 22 54.51 32.86
5 4 23 38.17 29.86
5 4 24 -34.83 28.39
5 5 -17 27.95 21.45
5 5 -16 121.37 34.65
5 5 -15 245.27 44.17
5 5 -11 417.94 33.06
5 5 -10 76.39 16.7
5 5 -5 79.46 16.18
5 5 -4 791.72 46.47
5 5 1 1553.86 48.3
5 5 2 135.17 30.92
5 5 3 1356.03 86.13
5 5 4 542.25 54.64
5 5 5 939.51 72.16
5 5 6 208.71 36.96
5 5 7 112.33 31.88
5 5 7 104.46 26.3
5 5 8 603.75 61.97
5 5 8 665.46 70.44
5 5 9 90.21 26.27
5 5 9 91.23 30.35
5 5 10 54.12 22.48
5 5 10 40.31 23.23
5 5 11 10.33 21.99
5 5 11 31.8 23.42
5 5 12 369.33 57.89
5 5 12 268.51 45.16
5 5 13 203.39 42.11
5 5 13 238.39 50.34
5 5 14 161.63 44.47
5 5 14 146.17 38.16
5 5 15 945.13 96.82
5 5 15 815.68 81.46
5 5 16 -11.44 16.86
5 5 16 0.32 20.26
5 5 17 178.35 41.88
5 5 17 280.17 57.7
5 5 18 86.64 30.71
5 5 18 126.49 42.86
5 5 19 109.42 39.18
5 5 19 107.68 38.97
5 5 20 61.31 33.26
5 5 20 32.96 30.28
5 5 21 59.82 25.47
5 5 22 219.54 53.37
5 5 23 -15.34 21.04
5 5 24 174.93 49.36
5 6 -16 180.19 38.44
5 6 -5 488.68 41.32
5 6 -4 450.87 39.98
5 6 -3 1120.43 61.76
5 6 -3 974.28 39.72
5 6 1 138.68 18.35
5 6 2 1144.72 81.83
5 6 2 890.89 41.76
5 6 3 1630.31 97.99
5 6 3 1640.6 54.39
5 6 4 53.64 27.12
5 6 4 33.2 10.5
5 6 5 1680.15 102.4
5 6 6 72.97 27.12
5 6 6 75.67 23.2
5 6 7 980.82 91.16
5 6 7 1113.14 84.99
5 6 8 0.26 16.79
5 6 8 59.49 27.14
5 6 9 1149.58 87.85
5 6 9 1255.31 105.44
5 6 10 32.38 21.19
5 6 10 -16.8 22.85
5 6 11 -7.06 14.92
5 6 11 6.06 21.65
5 6 12 450.52 58.97
5 6 12 423.14 65.57
5 6 13 65.29 27.7
5 6 13 43.71 25.37
5 6 14 609.54 80.37
5 6 14 696.79 77.07
5 6 15 -3.87 18.72
5 6 15 12.15 21.02
5 6 16 404.14 60.5
5 6 16 467.3 73.85
5 6 17 112.01 35.74
5 6 17 127.25 43.11
5 6 18 107.82 34.65
5 6 18 178.3 47.25
5 6 19 100.33 36.11
5 6 19 137.23 43.64
5 6 20 16.03 17.33
5 6 20 -7.72 30.06
5 6 21 214.86 52.42
5 6 21 126.3 46.34
5 6 22 -12.79 22.39
5 6 23 166.69 46.15
5 7 -6 173.31 27.97
5 7 -5 532.68 47.49
5 7 -4 648.59 52.21
5 7 -3 1076.68 66.77
5 7 -3 900.62 42.95
5 7 -2 23.58 9.4
5 7 0 32.12 14.14
5 7 1 84.13 17.35
5 7 2 497.42 55.24
5 7 2 418.93 34.33
5 7 3 353.74 48.71
5 7 3 296.26 28.33
5 7 4 1554.3 100.08
5 7 4 1629.08 65.85
5 7 5 94.48 17
5 7 5 96.18 32.33
5 7 6 1165.41 88.46
5 7 6 1114.27 100.84
5 7 7 168.67 39.12
5 7 7 186.58 38.54
5 7 8 183.78 38.73
5 7 8 180.03 45.53
5 7 9 565.81 66.44
5 7 9 645.17 79.07
5 7 10 88.98 34.32
5 7 10 82.66 30.68
5 7 11 1506.15 106.01
5 7 11 1532 127.02
5 7 12 15.28 18.58
5 7 12 2.24 20.92
5 7 13 482.56 63.66
5 7 13 609.22 82.58
5 7 14 242.8 52.78
5 7 14 182.75 43.02
5 7 15 284.46 60.59
5 7 15 211.12 44.6
5 7 16 209.99 46.45
5 7 16 187.07 49.58
5 7 17 106.74 33.6
5 7 17 111 40.96
5 7 18 120.56 37.2
5 7 18 139.99 47.41
5 7 19 49.97 33.18
5 7 19 83.56 39.74
5 7 20 120.39 38.42
5 7 20 84.43 38.59
5 7 21 18.55 24.7
5 7 21 -5.88 22.44
5 7 22 135.53 44.15
5 7 22 114.82 44.61
5 7 23 36.76 29.3
5 8 -6 722.55 59.18
5 8 -5 67.57 22.35
5 8 -4 460.84 48.5
5 8 -3 -0.29 12.51
5 8 -3 -4.18 8.42
5 8 -2 441.16 35.68
5 8 2 8.39 10.17
5 8 3 524.71 43.82
5 8 3 591.52 63.17
5 8 4 5.23 12.09
5 8 4 61.58 25.91
5 8 5 224.43 41.12
5 8 5 235.58 28.85
5 8 6 402.27 54.56
5 8 6 398.04 63.95
5 8 6 467.21 41.7
5 8 7 420.89 67.54
5 8 7 421.81 58.12
5 8 8 464.17 59.86
5 8 8 408.52 65.09
5 8 9 185.4 49.57
5 8 9 163.33 39.6
5 8 10 1218.03 98.28
5 8 10 1279.96 120.09
5 8 11 39.08 26.82
5 8 11 11.3 24.17
5 8 12 479.71 63.3
5 8 12 475.03 77.89
5 8 13 386.9 57.58
5 8 13 425.53 75.2
5 8 14 115.52 40.07
5 8 14 125.06 38.13
5 8 15 695.98 81.24
5 8 15 773.57 100.7
5 8 16 37.81 23.61
5 8 16 10.52 26.28
5 8 17 299.48 58.06
5 8 17 499.82 83.16
5 8 18 9.54 20.13
5 8 18 74.19 43.56
5 8 19 435.65 70.61
5 8 19 342.29 73.09
5 8 20 7 18.45
5 8 20 107.29 42.21
5 8 21 28.21 26.98
5 8 21 43.73 43.84
5 8 22 174.87 49.75
5 8 22 109.62 46.79
5 8 23 -5.4 21.74
5 9 -6 68.27 27.14
5 9 -5 1421.88 90.94
5 9 -4 208.56 38.58
5 9 -3 873.66 70.65
5 9 -2 1054.55 78.29
5 9 3 134.49 39.61
5 9 4 1418.79 103.07
5 9 5 460.31 62.68
5 9 6 429.45 60.87
5 9 6 353 67.29
5 9 7 922.01 103.16
5 9 7 1058.32 90.51
5 9 8 75.14 32.17
5 9 8 70.31 34.68
5 9 9 1294.27 102.35
5 9 9 1329.29 126.06
5 9 10 304.12 52.95
5 9 10 214.57 53.54
5 9 11 413.37 61.1
5 9 11 413.3 73.43
5 9 12 558.81 69.46
5 9 12 431.65 73.82
5 9 13 116.8 36.33
5 9 13 96.96 43.29
5 9 14 376.57 73.65
5 9 14 332.83 56.15
5 9 15 28.57 32.44
5 9 15 27.61 23.59
5 9 16 293.69 67.13
5 9 16 191.14 47.5
5 9 17 186.23 48.48
5 9 17 89.06 43.44
5 9 18 136.94 39.47
5 9 18 131.95 47.37
5 9 19 76.89 35.67
5 9 19 66.85 41.69
5 9 20 38.23 30.36
5 9 20 75.19 42.94
5 9 21 89.88 36.86
5 9 21 21.49 26.61
5 9 22 17.44 26.92
5 9 22 -12.47 34.67
5 9 23 103.38 42.02
5 9 23 44.84 36.24
5 10 -6 332.15 48.64
5 10 -5 21.2 15.87
5 10 -4 27.31 19.73
5 10 -3 173.43 35.54
5 10 -2 129.74 30.84
5 10 3 275.1 50.35
5 10 4 518.69 64.85
5 10 5 58.78 26.37
5 10 6 430.83 60.85
5 10 6 433.47 73.82
5 10 7 24.82 16.92
5 10 7 -6.75 21.53
5 10 8 80.91 29.53
5 10 8 22.15 38.48
5 10 9 93.27 33.07
5 10 9 66.28 37.13
5 10 10 521.24 68.83
5 10 10 422.92 75.54
5 10 11 195.18 44.58
5 10 11 199.54 53.49
5 10 12 167.31 40.15
5 10 12 165.29 51.58
5 10 13 386.24 61.62
5 10 13 308.95 70.03
5 10 14 -10.77 17.14
5 10 14 6.83 31.98
5 10 15 88.96 38.71
5 10 15 166.81 43.26
5 10 16 237.64 64.42
5 10 16 260.05 55.14
5 10 17 144.17 41.41
5 10 17 136.93 48.46
5 10 18 251.66 55.56
5 10 18 289.02 71.85
5 10 19 30.16 23.97
5 10 19 -22.63 26.6
5 10 20 147.59 44.02
5 10 20 160.14 59.58
5 10 21 6.13 20.07
5 10 21 -34.18 35.1
5 10 22 38.89 32.14
5 10 22 19.1 30.37
5 11 -6 105.42 32.78
5 11 -5 275.91 46.36
5 11 -4 266.81 46.79
5 11 -3 217.23 40.71
5 11 -2 1111.94 91.28
5 11 -1 350.98 53.91
5 11 3 1053.27 95.99
5 11 4 448.72 64.78
5 11 5 1187.45 101.34
5 11 6 563.64 74.06
5 11 6 297.79 70.75
5 11 7 348.61 57.46
5 11 7 194.79 54.33
5 11 8 573.56 91.44
5 11 8 616.27 76.46
5 11 9 30.49 24.83
5 11 9 14.06 30.05
5 11 10 418.02 80.33
5 11 10 374.79 60.4
5 11 11 44.9 23.12
5 11 11 86.71 38.43
5 11 12 477.93 68.88
5 11 12 374.76 81.7
5 11 13 81.95 32.4
5 11 13 23.47 24.55
5 11 14 509.85 72.2
5 11 14 312 71.39
5 11 15 138.51 52.4
5 11 15 154.61 45.01
5 11 16 123.64 53.37
5 11 16 144.38 40.4
5 11 17 93.28 36.98
5 11 17 159.63 54.6
5 11 18 51.28 34.8
5 11 18 -33.7 38.7
5 11 19 175.09 47.46
5 11 19 171.34 58.19
5 11 20 -35.24 29.69
5 11 20 14.95 40.81
5 11 21 167.85 49.39
5 12 -6 28.44 26.72
5 12 -5 284.33 51.25
5 12 -4 75.97 32.66
5 12 -3 373.83 56.5
5 12 -2 35.81 29.25
5 12 -1 248.88 50.05
5 12 0 325.53 53.74
5 12 2 444.58 65.59
5 12 3 124.76 38.46
5 12 4 466.36 65.15
5 12 5 186.55 42.37
5 12 6 86.04 34.35
5 12 7 528.13 70.27
5 12 7 365.39 80.82
5 12 8 22.57 33.3
5 12 8 -24.03 23.97
5 12 9 266.13 51.01
5 12 9 261.99 69.27
5 12 10 14.02 30.86
5 12 10 19.16 24.55
5 12 11 482.36 72.05
5 12 11 260.78 67.74
5 12 12 54.77 28.5
5 12 12 72.22 48.88
5 12 13 227.79 47.85
5 12 13 151.06 60.2
5 12 14 110.35 37.5
5 12 14 159.83 55.47
5 12 15 125.01 40.23
5 12 15 13.01 29.86
5 12 16 141.24 47.87
5 12 16 129.18 42.96
5 12 17 -6.94 30.07
5 12 17 -23.95 24
5 12 18 224.7 54.14
5 12 18 150.61 58.03
5 12 19 166.01 50.6
5 13 -5 13.32 17.57
5 13 -4 43.85 28.33
5 13 -3 65.47 31.14
5 13 -2 19.34 23.15
5 13 -1 254.38 48.93
5 13 0 156.41 41.13
5 13 1 439.3 63.66
5 13 2 104.33 38.1
5 13 3 394.74 63.76
5 13 4 336.94 63.41
5 13 5 283.29 56.64
5 13 6 140.25 39.41
5 13 7 8.75 20.05
5 13 8 77.51 33.94
5 13 8 64.09 34.95
5 13 9 20.91 23.27
5 13 9 23.96 30.13
5 13 10 145.58 44.51
5 13 10 135.65 46.9
5 13 11 54.95 33.22
5 13 11 58.64 41.8
5 13 12 204.61 48.73
5 13 12 169.15 65.05
5 13 13 140.06 43.91
5 13 13 172.85 56.73
5 13 14 28.94 23.32
5 13 14 -66.13 48.52
5 13 15 193.1 50.22
5 13 15 142.97 58.4
5 13 16 16.72 29.09
5 13 16 23.83 27.5
5 14 -5 77.05 31.12
5 14 -4 280.86 54.41
5 14 -3 88.21 39.55
5 14 -2 479.88 73.23
5 14 -1 100.84 39.17
5 14 0 426.41 66.07
5 14 1 356.41 63.04
5 14 2 389.47 64.06
5 14 2 429.12 69.73
5 14 3 422.49 67.54
5 14 4 274.63 59.23
5 14 5 441.82 70.09
5 14 6 158.11 49.31
5 14 7 479.76 72.47
5 14 8 45.76 29.76
5 14 9 327.74 60.64
5 14 9 229 61.1
5 14 10 123.54 55.3
5 14 10 142.69 45.47
5 14 11 189.68 49.16
5 14 11 103.59 44.7
5 14 12 272.89 59.94
5 14 12 172.45 59.02
5 14 13 -19.15 22.21
5 14 13 -14.97 33.12
5 15 -4 107.05 44.47
5 15 -3 243.43 56.23
5 15 -2 54.4 36.99
5 15 -1 421.8 71.04
5 15 0 251.6 55.97
5 15 1 246.2 57.19
5 15 1 127.9 40.71
5 15 2 380.23 65.32
5 15 2 409.78 69.44
5 15 3 306.61 64.01
5 15 3 238.76 58.34
5 15 4 288.5 60.43
5 15 5 172.7 50.79
5 15 6 393.93 66.94
5 15 7 291.67 58.6
5 15 8 169.97 50.74
5 15 9 212.48 52.96
5 16 0 134.19 44.48
5 16 0 175.57 50.38
5 16 1 298.96 66.12
5 16 1 242.42 58.02
5 16 2 64.65 34.17
5 16 3 221.23 57.21
5 16 4 186.61 55.98
5 16 5 214.08 54.45
6 -13 -4 306.89 63.87
6 -13 -3 113.93 46.99
6 -13 -2 274.14 59.72
6 -13 -1 49.64 30.52
6 -13 0 143.88 48.45
6 -13 1 165.5 45.2
6 -13 2 23.29 25.95
6 -13 3 220.1 56.82
6 -13 4 80.22 35.72
6 -12 -10 141.64 50.39
6 -12 -6 150.81 47.42
6 -12 -5 258.73 59.7
6 -12 -4 23.46 28.71
6 -12 -3 198.85 48.93
6 -12 -2 133.57 43.28
6 -12 -1 107.38 40.44
6 -12 0 269.43 57.29
6 -12 1 -3.68 18.62
6 -12 2 384.17 68.18
6 -12 3 -19.31 29.91
6 -12 4 168.98 46.5
6 -12 5 74.64 35.57
6 -12 6 69.32 33.74
6 -12 7 151.58 48.97
6 -12 8 -14.01 23.59
6 -12 9 189.01 52.65
6 -12 10 -5.3 26.21
6 -11 -13 234.96 64.44
6 -11 -12 109.47 49.5
6 -11 -11 112.68 46.22
6 -11 -10 201 54.87
6 -11 -9 58.46 47.15
6 -11 -8 173.08 61.33
6 -11 -7 99.87 37.73
6 -11 -6 366.65 67.07
6 -11 -5 49.53 25.31
6 -11 -4 111.8 37.41
6 -11 -3 37.49 21.85
6 -11 -2 7.46 19.58
6 -11 -1 117.4 38.43
6 -11 0 67.98 33.7
6 -11 1 292.56 58.7
6 -11 2 49.98 25.04
6 -11 3 125.16 39.34
6 -11 4 124.15 36.89
6 -11 5 114.5 41.31
6 -11 6 262.58 55.49
6 -11 6 239.45 52.91
6 -11 7 42.04 28.63
6 -11 7 6.91 19.26
6 -11 8 199.11 52.46
6 -11 8 208.76 52.72
6 -11 9 51.07 26.95
6 -11 9 13.39 29.97
6 -11 10 123.27 41.93
6 -11 10 42.6 22.14
6 -11 11 21.47 29.7
6 -11 11 39.68 29.67
6 -11 12 19.34 25.55
6 -11 12 -17.22 31.11
6 -11 13 53.14 27.35
6 -10 -16 207.23 62.71
6 -10 -15 50.56 36.7
6 -10 -14 248.04 67.73
6 -10 -13 -62.74 37.11
6 -10 -12 41.27 35.82
6 -10 -11 32.58 30.87
6 -10 -10 14.75 23.76
6 -10 -9 301.96 67.79
6 -10 -8 10.59 20.4
6 -10 -8 73.86 46.34
6 -10 -7 344.47 65.12
6 -10 -7 356.93 70.36
6 -10 -6 41.05 31.64
6 -10 -5 135.33 44.39
6 -10 -4 289.95 56.7
6 -10 -3 76.81 30.45
6 -10 -2 241.06 51.89
6 -10 -1 41.7 25.75
6 -10 0 207.92 46.27
6 -10 1 112.22 35.27
6 -10 2 17.98 20.93
6 -10 3 371.15 60.75
6 -10 4 14.33 24.79
6 -10 4 44 28.2
6 -10 5 254.61 51.81
6 -10 5 235.95 46.1
6 -10 6 52.37 26.32
6 -10 6 10.02 20.68
6 -10 7 26.51 24.3
6 -10 7 47.66 25.2
6 -10 8 68.22 33.02
6 -10 8 117.01 37.19
6 -10 9 25.22 23.92
6 -10 9 -21.8 29.76
6 -10 10 149.85 44.25
6 -10 10 134.39 42.07
6 -10 11 27.04 27.79
6 -10 11 8.11 25.04
6 -10 12 214.61 54.9
6 -10 12 151.46 50.43
6 -10 13 -13.54 21.87
6 -10 13 11.9 28.8
6 -10 14 104.17 41.98
6 -10 15 -18.98 26
6 -9 -17 160.17 55.25
6 -9 -16 215.85 64.84
6 -9 -15 134.52 51.66
6 -9 -14 262.55 65.85
6 -9 -13 62.55 34.36
6 -9 -12 245.69 61.11
6 -9 -11 -6.9 28.08
6 -9 -10 237.63 55.91
6 -9 -9 152.1 50.51
6 -9 -8 107.71 37.48
6 -9 -8 134.76 49.33
6 -9 -7 109.77 41.93
6 -9 -7 129.33 40.17
6 -9 -6 221.39 48.05
6 -9 -6 204.76 53.56
6 -9 -5 146.54 41.54
6 -9 -4 106.25 35.04
6 -9 -3 488.62 69.44
6 -9 -2 67.17 33.91
6 -9 -1 376.04 61.46
6 -9 0 361.23 60.64
6 -9 1 82.22 34.11
6 -9 1 46.43 22.15
6 -9 2 229.46 46.46
6 -9 2 167.98 34.1
6 -9 3 25.71 21.95
6 -9 3 10.99 14.77
6 -9 4 137.89 38.35
6 -9 4 107.36 28.61
6 -9 5 2.27 18.08
6 -9 5 1.38 17.44
6 -9 6 89.41 35.3
6 -9 6 105.84 32.48
6 -9 7 139.64 38.13
6 -9 7 78.76 28.87
6 -9 8 162.06 43.9
6 -9 8 149.16 43.81
6 -9 9 123.88 39.7
6 -9 9 31.9 25.92
6 -9 10 86.05 29.65
6 -9 10 35.51 20.2
6 -9 11 303.95 59.44
6 -9 12 17.05 22.89
6 -9 13 169.35 49.33
6 -9 14 90.57 35.57
6 -8 -19 23.2 24.65
6 -8 -18 133.15 52.09
6 -8 -17 71.69 36.26
6 -8 -16 186.45 55.07
6 -8 -15 210.06 55.27
6 -8 -14 1.13 24.51
6 -8 -13 319.21 68.55
6 -8 -12 50.66 32.69
6 -8 -11 362.82 71.13
6 -8 -10 283.28 59.51
6 -8 -9 242.47 51.96
6 -8 -9 302.08 62.08
6 -8 -8 255.21 49.41
6 -8 -8 303.34 63.19
6 -8 -7 50.62 26.7
6 -8 -7 48.03 33.59
6 -8 -6 482.28 68.78
6 -8 -6 439.74 72.48
6 -8 -5 78.01 35.91
6 -8 -5 74.7 39.26
6 -8 -4 433.03 63.4
6 -8 -3 373.76 58.99
6 -8 -2 257.47 51.1
6 -8 -1 305.6 35.96
6 -8 -1 471.62 65.65
6 -8 0 235.77 47.94
6 -8 0 153.84 26.34
6 -8 1 362.96 43.89
6 -8 1 446.54 65.76
6 -8 2 39.73 24.53
6 -8 2 44.63 23.06
6 -8 3 252.7 50.6
6 -8 3 251.84 39.77
6 -8 4 86.2 33.65
6 -8 4 114.36 29.65
6 -8 5 214.67 48.6
6 -8 5 165.87 37.09
6 -8 6 252.75 49.33
6 -8 6 244.1 44.43
6 -8 7 149.55 39.1
6 -8 7 124.38 34.45
6 -8 8 220.79 47.04
6 -8 9 -9.37 18.04
6 -8 10 245.45 48.76
6 -8 11 168.14 44.59
6 -8 12 234.28 53.22
6 -8 13 254.88 55
6 -8 14 30.58 24.41
6 -8 15 196.19 51.1
6 -8 16 37.37 36.68
6 -7 -20 -4.05 21.07
6 -7 -19 185.04 55.82
6 -7 -18 4.61 22.62
6 -7 -17 106.43 42.98
6 -7 -16 71.62 34.52
6 -7 -15 30.79 30.04
6 -7 -14 205.77 55.35
6 -7 -13 72.53 33.3
6 -7 -12 312 61.93
6 -7 -11 118.22 40.51
6 -7 -10 101.81 39.91
6 -7 -9 571.78 74.37
6 -7 -9 617.81 83.62
6 -7 -8 44.42 26.34
6 -7 -8 76.29 35.39
6 -7 -7 201.99 46.6
6 -7 -7 207.35 49.84
6 -7 -6 10.76 24.64
6 -7 -6 16.54 24.82
6 -7 -5 -13.03 21.51
6 -7 -5 6.5 18.77
6 -7 -4 27.17 16.08
6 -7 -4 1.29 23.52
6 -7 -3 39.36 15.73
6 -7 -3 43.22 28.31
6 -7 -2 308.19 31.81
6 -7 -2 374.94 56.14
6 -7 -1 55.72 24.96
6 -7 -1 20.74 13.74
6 -7 0 152.61 38.68
6 -7 0 99.95 19.38
6 -7 1 46.58 25.66
6 -7 1 18.66 15.83
6 -7 2 4.94 18.58
6 -7 2 21.2 20.07
6 -7 3 45.76 19.03
6 -7 3 42.68 19.05
6 -7 4 -26.31 20.62
6 -7 4 4.96 18.17
6 -7 5 290.09 43.96
6 -7 6 108.33 32.79
6 -7 7 363.32 53.59
6 -7 8 79.95 29.82
6 -7 9 310.96 54.05
6 -7 10 116.88 36.97
6 -7 11 202.79 45.6
6 -7 12 130.25 39.77
6 -7 13 -9.86 23.18
6 -7 14 173.27 46.28
6 -7 15 68.64 32.49
6 -7 16 66.5 32.25
6 -7 17 121.73 46.6
6 -6 -20 30.93 27.32
6 -6 -19 123.15 39.92
6 -6 -18 -15.31 26.18
6 -6 -17 347.28 67.81
6 -6 -16 -0.32 21.08
6 -6 -15 315.68 64.34
6 -6 -14 136.33 37.38
6 -6 -13 109.6 39.14
6 -6 -12 538.99 77.93
6 -6 -11 -0.25 20.33
6 -6 -10 904.81 95.9
6 -6 -9 38.64 25.43
6 -6 -9 -9.16 25.03
6 -6 -8 393.24 58.75
6 -6 -8 408.12 64.37
6 -6 -7 51.46 20.31
6 -6 -7 86.08 28.1
6 -6 -6 326.28 51.6
6 -6 -6 322.47 56.87
6 -6 -5 150.72 36.72
6 -6 -5 150.01 42.64
6 -6 -4 258.92 44.35
6 -6 -4 153.36 16.09
6 -6 -4 265.04 52.59
6 -6 -3 675.03 39.77
6 -6 -3 812.91 77.67
6 -6 -3 906.22 89.68
6 -6 -2 96.91 34.21
6 -6 -2 44.75 14.28
6 -6 -1 1239.77 64.98
6 -6 -1 1498.86 104.99
6 -6 0 370.02 38.32
6 -6 0 363.51 53.2
6 -6 1 317.65 38.61
6 -6 1 293 49.72
6 -6 2 411.32 56.62
6 -6 2 372.7 42.78
6 -6 3 51.3 26.45
6 -6 3 29.98 15.99
6 -6 4 214.01 36.6
6 -6 5 27.57 20.19
6 -6 6 464.72 55.99
6 -6 7 103.16 27.77
6 -6 8 513.13 61.26
6 -6 9 62.02 24.87
6 -6 10 229.46 47.31
6 -6 11 115.34 33.23
6 -6 12 16.13 18.4
6 -6 13 339.38 58.74
6 -6 14 44.22 30.94
6 -6 15 181.67 44.45
6 -6 16 37.23 28.73
6 -6 17 94.17 38.83
6 -6 18 23.31 22.3
6 -5 -21 116.73 46.63
6 -5 -20 219.57 58.18
6 -5 -19 -5.93 25.63
6 -5 -18 171 49.35
6 -5 -17 49.62 26.74
6 -5 -16 238.63 53.33
6 -5 -15 158.4 48.74
6 -5 -14 214.6 51.3
6 -5 -13 184.45 45.77
6 -5 -12 -10.46 21.37
6 -5 -11 711.65 84.63
6 -5 -10 80.07 33.73
6 -5 -9 691.17 72.41
6 -5 -9 767.75 84.16
6 -5 -8 210.17 41.43
6 -5 -8 211.76 45.87
6 -5 -7 439.48 57.54
6 -5 -7 436.05 63.53
6 -5 -6 638.22 67.96
6 -5 -6 684.02 77.43
6 -5 -5 11.09 4.94
6 -5 -5 -4.23 12.68
6 -5 -4 1004.64 40.06
6 -5 -4 1245.95 92.17
6 -5 -4 1306.97 106.34
6 -5 -3 203.33 20.9
6 -5 -3 218.47 41.16
6 -5 -3 306.95 54.47
6 -5 -2 1568.84 101.47
6 -5 -2 1297.14 58.76
6 -5 -2 1442.5 110.4
6 -5 -1 943.3 80.1
6 -5 -1 843.32 51.8
6 -5 0 897.47 79.88
6 -5 0 816.25 54.71
6 -5 1 1217.45 84.9
6 -5 1 1117.44 86.55
6 -5 2 284.61 43.1
6 -5 3 869.48 71.01
6 -5 4 70.24 23.98
6 -5 5 457.55 50.52
6 -5 6 643.56 60.42
6 -5 6 553.15 59.1
6 -5 7 175.67 33.02
6 -5 7 217.69 42.37
6 -5 8 767.28 64.22
6 -5 8 604.93 64.5
6 -5 9 60.57 18.64
6 -5 9 46.13 25.04
6 -5 10 246.81 46.14
6 -5 10 215.11 35.01
6 -5 11 98.86 26.15
6 -5 11 86.32 30.26
6 -5 12 268.44 49.72
6 -5 13 29.97 25.64
6 -5 14 47.49 31.19
6 -5 15 263.52 51.92
6 -5 16 13.36 22.2
6 -5 17 329.95 64.95
6 -5 18 38.73 28.91
6 -5 19 233.84 57.39
6 -4 -22 31.9 30.69
6 -4 -21 122.09 47.88
6 -4 -20 -1.92 29.51
6 -4 -19 224.79 54.76
6 -4 -18 192.75 55.06
6 -4 -17 200.92 56.08
6 -4 -16 141.87 43.66
6 -4 -15 20.2 24.37
6 -4 -14 343.73 61.06
6 -4 -13 20.8 17.48
6 -4 -12 651.76 78
6 -4 -11 375.57 58.71
6 -4 -10 20.77 21.96
6 -4 -9 177.97 35.3
6 -4 -9 144.91 34.78
6 -4 -8 -12.44 18.47
6 -4 -8 7.48 17.1
6 -4 -7 545.6 60.27
6 -4 -7 626.95 70.84
6 -4 -6 168.09 36.43
6 -4 -6 155.33 36.39
6 -4 -5 744.65 32.22
6 -4 -5 922.64 75.29
6 -4 -5 936.08 85.67
6 -4 -4 308.45 25.11
6 -4 -4 401.64 50.67
6 -4 -4 400.36 55.29
6 -4 -3 341.61 47.46
6 -4 -3 384.6 53.99
6 -4 -2 725.27 65.35
6 -4 -2 704.39 64.91
6 -4 -2 831.18 77.38
6 -4 -1 159.31 31.06
6 -4 -1 170.94 31.18
6 -4 -1 180.41 19.38
6 -4 -1 153.6 34.99
6 -4 0 711.96 62.74
6 -4 0 674.81 64.28
6 -4 0 610.96 39.04
6 -4 1 133.61 31.8
6 -4 1 123.36 20.34
6 -4 2 931.57 71.03
6 -4 2 818 52.89
6 -4 3 351.91 43.13
6 -4 3 262.9 33.18
6 -4 4 553.2 54.21
6 -4 4 515.46 47.97
6 -4 5 515.17 52.95
6 -4 5 455.02 47.08
6 -4 6 35.92 19.72
6 -4 6 67.97 18.37
6 -4 7 -3.98 12.17
6 -4 7 27.62 18.79
6 -4 8 11.72 13.17
6 -4 8 33.06 20.48
6 -4 9 557.41 53.42
6 -4 9 485.49 57.31
6 -4 10 24.11 19.4
6 -4 10 11.67 14.72
6 -4 11 460.93 48.89
6 -4 11 495.02 61.49
6 -4 12 212.56 34.33
6 -4 12 165.09 39.63
6 -4 13 53.06 23.15
6 -4 13 41.92 17.34
6 -4 13 49.82 29.13
6 -4 14 282.89 53.74
6 -4 15 19.27 24.63
6 -4 16 295.69 54.68
6 -4 17 18.69 23.4
6 -4 18 65.92 34.94
6 -4 19 7.28 25
6 -4 20 -24.86 27.19
6 -3 -22 119.07 48.53
6 -3 -21 20.34 32.11
6 -3 -20 169.67 51.04
6 -3 -19 66.04 33.62
6 -3 -18 30.76 23.05
6 -3 -17 210.63 51.89
6 -3 -16 19.14 20.86
6 -3 -15 313.61 56.61
6 -3 -14 -2.82 17
6 -3 -13 101.78 33.73
6 -3 -12 396.7 59.47
6 -3 -11 242.93 46.54
6 -3 -10 793.15 80.13
6 -3 -9 87.11 12.29
6 -3 -9 133.32 31.09
6 -3 -9 189.35 39.35
6 -3 -8 821.38 71.31
6 -3 -8 738.67 33.75
6 -3 -8 903.8 82.34
6 -3 -7 89.03 23.99
6 -3 -7 67.32 9.43
6 -3 -7 97.52 10.26
6 -3 -7 54.3 20.68
6 -3 -6 138.92 14.62
6 -3 -6 132.21 12.17
6 -3 -6 129.18 26.71
6 -3 -6 97.63 28.31
6 -3 -6 130.51 32.51
6 -3 -5 399.22 27.2
6 -3 -5 448.42 49.88
6 -3 -5 416.34 54.49
6 -3 -5 406.66 51.61
6 -3 -5 446.48 21.62
6 -3 -4 373.95 48.11
6 -3 -4 369.32 28.68
6 -3 -4 469.81 50.64
6 -3 -4 416.95 22.74
6 -3 -4 408.32 52.89
6 -3 -4 395.43 51.46
6 -3 -3 420.02 50.04
6 -3 -3 348.35 30.57
6 -3 -3 431.22 49.44
6 -3 -3 493.03 26.93
6 -3 -3 379.06 51.5
6 -3 -3 496.99 55.62
6 -3 -2 299.31 40.62
6 -3 -2 307.32 42.03
6 -3 -2 344.21 24.46
6 -3 -2 373.66 50.48
6 -3 -2 301.66 44.4
6 -3 -1 1205.51 80.4
6 -3 -1 1156.5 86.77
6 -3 -1 1138.72 79.6
6 -3 -1 1252.53 51.48
6 -3 -1 1060.16 78.36
6 -3 0 297.91 38.39
6 -3 0 261.42 26.28
6 -3 0 249.79 38.89
6 -3 1 542.23 52.36
6 -3 1 536.26 39.22
6 -3 1 558.9 54.01
6 -3 2 651.25 56.8
6 -3 2 530.56 42.35
6 -3 2 697.58 57.5
6 -3 3 295.58 38.35
6 -3 3 310.59 35.33
6 -3 3 297.21 36.09
6 -3 4 148.66 26.75
6 -3 4 150.5 29.24
6 -3 5 23.1 14.41
6 -3 5 32.93 15.35
6 -3 6 914.25 66.16
6 -3 6 1032.27 72.56
6 -3 7 119.83 26.12
6 -3 7 212.41 34.52
6 -3 8 930.8 74.01
6 -3 9 295 44.88
6 -3 10 499.26 60.7
6 -3 11 78.8 25.18
6 -3 12 39.61 24.06
6 -3 13 261.86 48.91
6 -3 14 25.82 20.43
6 -3 15 270.27 52.47
6 -3 16 -6.11 25.8
6 -3 17 57.09 29.76
6 -3 17 79.99 31.17
6 -3 18 173.45 45.31
6 -3 19 42.67 35.16
6 -3 20 242 57.88
6 -2 -22 70.59 32.13
6 -2 -21 91.79 40.75
6 -2 -20 138.26 46.38
6 -2 -19 16.64 27.46
6 -2 -18 154 47.42
6 -2 -17 8.5 20.4
6 -2 -16 194.74 48.63
6 -2 -15 131.34 37.25
6 -2 -14 293.99 53.98
6 -2 -13 184.7 42.42
6 -2 -12 59.16 23.82
6 -2 -11 401.01 56.6
6 -2 -11 374.62 54.86
6 -2 -10 15.72 15.35
6 -2 -10 0.76 8.56
6 -2 -10 -4.71 16.68
6 -2 -9 348.76 50.78
6 -2 -9 313.83 24.24
6 -2 -9 304.46 41.88
6 -2 -9 316.09 49.25
6 -2 -8 200.37 38.3
6 -2 -8 179.51 18.71
6 -2 -8 196.68 34
6 -2 -8 195.27 38.8
6 -2 -7 292.32 23.49
6 -2 -7 254.71 37.52
6 -2 -7 171.8 37.15
6 -2 -7 276.08 43.44
6 -2 -6 1313.81 84.74
6 -2 -6 1445.76 56.58
6 -2 -6 1407.56 84.32
6 -2 -6 1469.87 96.48
6 -2 -6 1390.58 96.78
6 -2 -5 84.53 24.86
6 -2 -5 96.44 16.93
6 -2 -5 116.21 16.51
6 -2 -5 111.5 26.88
6 -2 -5 86.29 27.41
6 -2 -5 87.14 30.91
6 -2 -4 1471.44 88.83
6 -2 -4 1482.23 63.39
6 -2 -4 1564.49 86.98
6 -2 -4 1385.83 53
6 -2 -4 1378.14 91.13
6 -2 -4 1444.02 93.22
6 -2 -3 116.84 29.26
6 -2 -3 105.44 18.73
6 -2 -3 134.15 17.8
6 -2 -3 121.8 25.67
6 -2 -3 105.09 27.94
6 -2 -3 77.14 25.53
6 -2 -2 1289.62 80.08
6 -2 -2 1332.55 53.79
6 -2 -2 1258.72 79.26
6 -2 -2 1191.76 82.92
6 -2 -2 1209.89 79.95
6 -2 -1 159.94 30.21
6 -2 -1 103.1 16.92
6 -2 -1 108.44 27
6 -2 -1 156.11 20.54
6 -2 -1 181.56 34.89
6 -2 0 599.76 54.25
6 -2 0 567.09 53.14
6 -2 0 650.6 42.65
6 -2 1 1039.61 68.75
6 -2 1 929.66 53.22
6 -2 1 1043 70.39
6 -2 2 147.55 28.55
6 -2 2 244.3 30.4
6 -2 2 200.22 30.17
6 -2 3 1615.91 79.4
6 -2 3 1855.69 87.41
6 -2 4 551.07 48.46
6 -2 4 443.49 41.04
6 -2 5 1154.79 72.43
6 -2 5 1075.38 62.43
6 -2 6 17.24 14.52
6 -2 6 38.08 14.95
6 -2 7 450.97 47.97
6 -2 7 465.73 36.96
6 -2 8 10.77 13.44
6 -2 8 19.84 11.35
6 -2 9 88.24 25.38
6 -2 10 307.03 46.48
6 -2 11 -18.01 18.27
6 -2 12 356.52 53.37
6 -2 13 5.03 16.04
6 -2 14 180.37 41.97
6 -2 15 62.69 27.82
6 -2 16 143.34 41.88
6 -2 17 120.1 36.83
6 -2 18 2.21 20.88
6 -2 19 123.96 41.89
6 -2 19 27.55 23.37
6 -2 20 -34.95 25.4
6 -2 20 26.46 28.26
6 -2 21 7.35 21.93
6 -1 -22 51.59 35.29
6 -1 -21 122.37 50.83
6 -1 -20 19.18 32.42
6 -1 -19 216.13 57.42
6 -1 -18 106.55 44.34
6 -1 -17 243.28 54.19
6 -1 -16 74.27 30.83
6 -1 -15 29.01 28.03
6 -1 -14 82.18 31.79
6 -1 -14 183.73 47.14
6 -1 -13 30.34 23.49
6 -1 -13 29.32 25.61
6 -1 -12 442.55 60.33
6 -1 -12 410.63 58.21
6 -1 -11 219.53 40.31
6 -1 -11 167.87 41.8
6 -1 -10 463.07 37.33
6 -1 -10 419.54 55.1
6 -1 -10 402.25 55.94
6 -1 -9 728.92 45.28
6 -1 -9 766.65 75.47
6 -1 -9 662.03 65.65
6 -1 -8 62.66 24.33
6 -1 -8 81.39 20.72
6 -1 -8 42.27 22.03
6 -1 -8 64.59 13.75
6 -1 -7 1001.18 72.46
6 -1 -7 977.14 52.57
6 -1 -7 961.85 66.06
6 -1 -7 909.91 77
6 -1 -7 996.72 76.91
6 -1 -6 67.86 26.19
6 -1 -6 27.93 17.77
6 -1 -6 27.32 15.76
6 -1 -6 36.36 13.24
6 -1 -6 13.06 13.14
6 -1 -5 1361.8 82.74
6 -1 -5 1454.23 65.92
6 -1 -5 1416.26 78.34
6 -1 -5 1426.59 88.72
6 -1 -5 1360.77 88.64
6 -1 -4 492.88 48.78
6 -1 -4 576.07 42.16
6 -1 -4 473.99 35.32
6 -1 -4 500.61 46.78
6 -1 -4 527.66 52.27
6 -1 -4 495.63 53.6
6 -1 -3 32.82 17.46
6 -1 -3 73.92 24.8
6 -1 -3 68.35 17.64
6 -1 -3 71.1 17.03
6 -1 -3 41.3 16.32
6 -1 -3 83.73 23.06
6 -1 -2 2105.39 98.03
6 -1 -2 1796.79 80.7
6 -1 -2 1783 58.51
6 -1 -2 1886.8 72.16
6 -1 -2 1785.64 94.77
6 -1 -2 1819.83 94.44
6 -1 -1 345.18 39.09
6 -1 -1 431.03 28.92
6 -1 -1 455.44 36.47
6 -1 -1 390.87 44.19
6 -1 -1 346.42 40.16
6 -1 0 846.16 50.28
6 -1 0 797.44 61.61
6 -1 1 1194.76 61.87
6 -1 1 1544.79 76.6
6 -1 2 45.25 16.61
6 -1 3 198.85 29.17
6 -1 4 1424.7 77.86
6 -1 5 29.77 17.98
6 -1 6 842.62 64.78
6 -1 7 110.39 26.55
6 -1 8 419.81 50.68
6 -1 9 953.6 74.6
6 -1 10 95.49 27.77
6 -1 11 398.93 52.41
6 -1 11 394.21 25.21
6 -1 12 20.55 20.06
6 -1 13 39.56 21.85
6 -1 14 -12.59 16.32
6 -1 15 50.22 27.12
6 -1 16 368.79 59.75
6 -1 17 48.41 30.2
6 -1 18 258.37 53.43
6 -1 19 89.9 36.43
6 -1 20 39.28 28.75
6 -1 21 30.33 34.69
6 -1 21 16.04 24.12
6 -1 22 63.02 38.16
6 -1 22 17.5 19.46
6 0 -23 -27.07 32.36
6 0 -22 95.09 46.27
6 0 -21 3.28 24.48
6 0 -20 161.53 50.97
6 0 -19 -48.93 38.63
6 0 -18 40.21 30.92
6 0 -17 101.95 40.65
6 0 -16 94.2 32.7
6 0 -16 105.19 40.78
6 0 -15 94.85 32.93
6 0 -15 126.11 38.34
6 0 -14 147.56 41.22
6 0 -14 172.25 42.82
6 0 -13 1003.59 93.03
6 0 -13 1040.16 94.3
6 0 -12 45.26 23.68
6 0 -12 37.56 28.23
6 0 -11 650.59 72.6
6 0 -11 620.43 67.28
6 0 -10 905.7 81.93
6 0 -10 896.9 78.83
6 0 -9 140.8 34.73
6 0 -9 184.14 34.9
6 0 -9 131.25 26.27
6 0 -8 363.46 48.17
6 0 -8 263.62 40.12
6 0 -8 307.45 41.39
6 0 -8 291.24 33.58
6 0 -7 44.59 22.35
6 0 -7 82.37 21.17
6 0 -7 58.44 21.6
6 0 -7 56.52 16.95
6 0 -6 1103.81 72.74
6 0 -6 1134.04 65.28
6 0 -6 1087.47 73.97
6 0 -6 1118.34 79.74
6 0 -5 153.73 26.59
6 0 -5 185.57 30.63
6 0 -5 176.46 26.16
6 0 -4 1882.32 92.54
6 0 -4 2128.27 90.33
6 0 -4 2089.77 99.08
6 0 -3 1055.11 68.32
6 0 -3 883.28 53.44
6 0 -3 814.51 60.7
6 0 -2 1565.66 72.15
6 0 -2 1519.33 46.06
6 0 -2 1600.91 82.18
6 0 -1 36.38 17.15
6 0 -1 28.89 16.3
6 0 0 292.27 31.59
6 0 0 258.88 32.75
6 0 1 802.17 53.08
6 0 2 576.02 46.75
6 0 3 2061.97 91.24
6 0 4 887.17 61.79
6 0 5 187.47 32.35
6 0 6 922.1 67.97
6 0 7 22.43 15.59
6 0 8 354.82 45.23
6 0 9 71.55 24.54
6 0 10 932.64 76.48
6 0 11 567.8 62.22
6 0 12 162.32 35.28
6 0 13 1051.77 89.3
6 0 14 21.33 18.72
6 0 15 342.44 55.21
6 0 16 11.12 21.24
6 0 17 85.29 35.35
6 0 18 5.09 24.07
6 0 19 10.33 17.23
6 0 20 89.66 35.42
6 0 21 22.92 25.69
6 0 22 -22.32 34.74
6 1 -23 203.63 62.18
6 1 -22 120 52.39
6 1 -21 68.22 41.09
6 1 -20 178.81 49.35
6 1 -19 49.12 29.56
6 1 -18 205.92 55.09
6 1 -18 265.07 55.79
6 1 -17 59.92 35.63
6 1 -17 23.37 18.58
6 1 -16 297.52 60.13
6 1 -16 285.67 56.23
6 1 -15 17.77 22.13
6 1 -15 3.59 21.81
6 1 -14 747.21 82.72
6 1 -14 631.35 77.29
6 1 -13 483 63.6
6 1 -13 443.63 64.57
6 1 -12 86.68 27.18
6 1 -12 81.11 30.58
6 1 -11 1551.49 105.93
6 1 -11 1553.07 108.08
6 1 -10 30.45 19.46
6 1 -10 32.09 19.37
6 1 -10 75.05 21.62
6 1 -9 617.06 53.76
6 1 -9 649.53 63.29
6 1 -9 575.57 60.76
6 1 -8 194.74 31.84
6 1 -8 140.07 27.35
6 1 -8 166.32 28.25
6 1 -7 1115.92 70.83
6 1 -7 1090.31 58.68
6 1 -7 1082.28 74.42
6 1 -6 246.29 35.18
6 1 -6 276.94 35.48
6 1 -6 219.19 26.92
6 1 -5 60.42 17.94
6 1 -5 16.73 12.38
6 1 -5 49.17 13.62
6 1 -4 119.22 22.76
6 1 -4 113.39 18.5
6 1 -3 46.99 17.71
6 1 -2 716.83 49.47
6 1 -2 731.44 52.78
6 1 -1 38.53 17.49
6 1 -1 10.07 11.42
6 1 0 2447.09 98.84
6 1 0 2211.68 84.79
6 1 1 575.64 48.1
6 1 2 255.85 32.27
6 1 3 24.32 16.29
6 1 4 68.3 18.47
6 1 5 429.75 45.45
6 1 6 19.7 16.17
6 1 7 1369.65 86.47
6 1 8 42.34 20.28
6 1 9 458.94 52.62
6 1 10 369.25 49.17
6 1 11 633.93 66.53
6 1 12 316.15 47.61
6 1 13 107.7 30.15
6 1 14 631.38 71.45
6 1 15 -25.26 21.75
6 1 16 164.34 39.78
6 1 17 201.96 46.91
6 1 18 118.89 37.33
6 1 19 214.6 50.06
6 1 20 34.69 30.58
6 1 21 118.41 47.81
6 1 22 30.26 19.55
6 2 -22 87.65 43.89
6 2 -21 -35.5 39.05
6 2 -20 76.2 46.97
6 2 -19 191.85 55.02
6 2 -19 190.01 48.29
6 2 -18 49.05 30.26
6 2 -18 39 32.09
6 2 -17 264.29 59.99
6 2 -17 200.24 47.45
6 2 -16 31.35 26.23
6 2 -16 35.52 27.03
6 2 -15 372.61 65.16
6 2 -15 402.36 60.59
6 2 -14 205.31 48.03
6 2 -14 283.71 53.72
6 2 -13 434.39 63.85
6 2 -13 495.89 61.97
6 2 -12 323.56 49.97
6 2 -12 404.13 59.36
6 2 -11 111.29 30.66
6 2 -11 130.73 37.1
6 2 -10 233.98 40.27
6 2 -10 157.17 35.2
6 2 -10 155.8 26.98
6 2 -9 45.51 20.66
6 2 -9 29.42 14.35
6 2 -8 136.71 28.89
6 2 -8 85.62 20.87
6 2 -7 268.33 36.64
6 2 -7 329.61 36.54
6 2 -7 286.84 25.6
6 2 -6 972.07 48.23
6 2 -6 910.08 65.41
6 2 -5 2206.3 75.41
6 2 -5 2093.68 94.58
6 2 -4 1062.99 62.32
6 2 -3 1226.58 63.41
6 2 -2 16.24 11.4
6 2 -1 1672.52 66.71
6 2 -1 1848.69 91.37
6 2 0 1780.72 89.77
6 2 0 1569.19 60.52
6 2 1 1619.01 85.58
6 2 2 973.97 66.87
6 2 3 161.3 29.12
6 2 4 3664.51 137.49
6 2 5 782.56 63.37
6 2 6 1265.17 82.19
6 2 7 303.09 41.5
6 2 8 -5.24 11.96
6 2 9 36.92 19.06
6 2 10 29.09 19.87
6 2 11 330.6 47.86
6 2 12 180.66 39.7
6 2 13 388.36 54.9
6 2 14 499.18 63.45
6 2 15 136.1 37.47
6 2 16 124.9 37.31
6 2 17 10.3 18.72
6 2 18 155.14 41.9
6 2 19 -24.43 22.97
6 2 20 131.7 41.02
6 2 21 155.71 45.82
6 2 22 26.04 22.45
6 3 -22 238.56 72.44
6 3 -21 -13.33 32.18
6 3 -20 177.72 53.8
6 3 -20 183.01 46.64
6 3 -19 3.08 36.33
6 3 -19 29.68 20.3
6 3 -18 297.57 68.06
6 3 -18 267.49 53.19
6 3 -17 98.5 38.88
6 3 -17 45.1 21.69
6 3 -16 200.76 53.93
6 3 -16 203.76 45.37
6 3 -15 187.53 42.12
6 3 -15 208.4 50.11
6 3 -14 1.67 18.17
6 3 -14 -2.46 22.56
6 3 -13 832.32 78.1
6 3 -12 174.17 38.32
6 3 -11 553.02 48.1
6 3 -10 869.93 59.64
6 3 -9 71.08 21.84
6 3 -9 68.52 18.02
6 3 -8 676.27 51.02
6 3 -8 678.74 64.5
6 3 -7 34.75 18.49
6 3 -6 47.91 17.48
6 3 -6 40.92 8.95
6 3 -5 91.75 20.21
6 3 -5 107.58 14.02
6 3 -4 1522.03 43.33
6 3 -4 1561.58 75.29
6 3 -3 122.7 20.6
6 3 -2 3822.82 105.12
6 3 -1 569.36 33.33
6 3 0 825.96 34.89
6 3 0 1001.21 68.98
6 3 1 2912.18 122.81
6 3 2 831.21 64.95
6 3 3 3178.29 129.84
6 3 4 555.89 55
6 3 5 359.4 45.45
6 3 6 88.94 25.06
6 3 7 19.07 17.33
6 3 8 601.85 59.41
6 3 9 530.11 58.64
6 3 10 518.63 59.4
6 3 11 -16.17 17.31
6 3 12 992.3 84.44
6 3 13 128.37 33
6 3 14 254.11 44.86
6 3 15 173.84 37.43
6 3 15 218.46 44.06
6 3 16 17.64 18.82
6 3 16 1.55 22.43
6 3 17 303.2 53.45
6 3 18 50.64 25.35
6 3 19 136.06 41.21
6 3 20 278.45 56.23
6 3 21 130.67 40.41
6 3 22 62.27 33.71
6 3 23 50.34 20.73
6 4 -22 -0.56 26.06
6 4 -21 277.08 73.81
6 4 -20 26.39 32.04
6 4 -19 177.57 47.2
6 4 -18 7.94 23.68
6 4 -17 41.36 28.55
6 4 -16 391.43 59.41
6 4 -15 6.23 20.59
6 4 -14 767.09 78.73
6 4 -11 109.17 21.68
6 4 -10 339.03 35.96
6 4 -9 92 18.78
6 4 -5 1633.61 45.14
6 4 -4 227.86 20.57
6 4 -2 332.82 27.93
6 4 -1 346.95 24.25
6 4 0 478.88 51.96
6 4 0 410.33 20.35
6 4 1 169.03 32.92
6 4 2 501.97 52.32
6 4 3 263.21 38.59
6 4 4 61.66 24.49
6 4 5 1301.86 87.11
6 4 6 465.15 55.98
6 4 7 1767.04 104.94
6 4 8 33.77 16.32
6 4 9 241.88 40.8
6 4 10 209.89 39.73
6 4 11 21.7 21.37
6 4 12 940.68 87.32
6 4 12 850.17 81.09
6 4 13 97.9 31.78
6 4 13 132.52 37.73
6 4 14 1323.4 109.29
6 4 14 1117.84 98.64
6 4 15 -21.81 26.31
6 4 15 56.54 29.09
6 4 16 510.91 70.18
6 4 16 524.87 69.95
6 4 17 6.61 17.49
6 4 17 19 22.32
6 4 18 171.24 41.84
6 4 18 213.91 46.9
6 4 19 81.9 30.09
6 4 20 40.5 25.44
6 4 21 165.71 48.73
6 4 22 -24.74 26.89
6 4 23 119.53 44.47
6 5 -18 46.12 29.92
6 5 -17 130.45 36.77
6 5 -16 51.05 28.68
6 5 -15 225.99 45.21
6 5 -12 682.88 47.97
6 5 -11 95.39 21.15
6 5 -10 712.58 50.6
6 5 -5 801.46 45.37
6 5 -4 27.55 10.58
6 5 1 352.66 44.92
6 5 2 566.94 57.22
6 5 3 216.64 38.21
6 5 4 97.16 26.59
6 5 5 16.42 22.47
6 5 6 616.01 64.17
6 5 7 -4.28 15.73
6 5 8 328.11 48.39
6 5 9 1314.1 95.8
6 5 10 46.8 22.85
6 5 11 1014.64 87.9
6 5 11 1036.3 95.25
6 5 12 -19.54 21.17
6 5 12 -26.49 23.6
6 5 13 661.5 78.51
6 5 13 552.42 67.84
6 5 14 49.87 25.73
6 5 14 -4.48 25.88
6 5 15 487.65 72.33
6 5 15 437.8 62.72
6 5 16 183.54 46.22
6 5 16 99.55 35.93
6 5 17 -5.35 18.61
6 5 17 -3.69 18.92
6 5 18 289.83 54.39
6 5 18 307.84 58.85
6 5 19 -25.46 19.94
6 5 19 9.25 23.98
6 5 20 167.21 44.96
6 5 21 -5.83 22.74
6 5 22 99.63 40.69
6 5 23 18.32 25.14
6 6 -17 113.01 35.51
6 6 -16 51.85 30.29
6 6 -5 29.02 11.03
6 6 -4 888.88 54.18
6 6 1 65.66 24.03
6 6 1 56.55 10.62
6 6 2 56.03 25.83
6 6 3 1387.75 94.85
6 6 4 72.3 29.35
6 6 5 1433.65 98.36
6 6 6 80.95 27.17
6 6 7 83.38 28.35
6 6 8 478.58 60.75
6 6 9 126.87 33.85
6 6 10 270.03 54.55
6 6 10 266.2 46.18
6 6 11 -1.15 23.28
6 6 11 14.18 18.62
6 6 12 492.7 64.93
6 6 12 531.27 74.64
6 6 13 48.63 25.84
6 6 13 71.41 27.69
6 6 14 216.06 47.59
6 6 14 146.87 43.05
6 6 15 282.64 51.87
6 6 15 317.67 60.49
6 6 16 38.49 25.1
6 6 16 93.96 37.23
6 6 17 153.69 43.47
6 6 17 118.64 42.81
6 6 18 60.89 29.12
6 6 18 56.03 30.44
6 6 19 304.62 60.14
6 6 19 266.65 62.73
6 6 20 -41.47 31.72
6 6 21 42.43 29.21
6 6 22 115.25 41.46
6 7 -6 10.37 12.25
6 7 -5 1064.39 66.46
6 7 -4 184.4 28.5
6 7 -4 157.71 13.57
6 7 -3 376.18 39.95
6 7 -3 334.8 25.21
6 7 0 1848.67 73.68
6 7 1 53.27 13.6
6 7 2 1876.61 62.71
6 7 2 2138.98 121.3
6 7 3 28.46 9.93
6 7 3 84.01 32.69
6 7 4 974.07 83.55
6 7 5 228.36 44.29
6 7 6 430.64 57.84
6 7 7 823.72 79.75
6 7 8 181.13 41.41
6 7 9 782.04 78.3
6 7 9 773.62 89.79
6 7 10 53.46 23.54
6 7 10 129.05 42.54
6 7 11 509.4 66.17
6 7 11 482.95 72.39
6 7 12 349.19 55.77
6 7 12 376.86 66.96
6 7 13 633.44 74.61
6 7 13 562.79 84.27
6 7 14 306.41 62.17
6 7 14 273.33 52.81
6 7 15 -8.69 16.66
6 7 15 -42.3 26.3
6 7 16 317.18 57.06
6 7 16 325.33 66.11
6 7 17 73.89 32.49
6 7 17 43.36 28.12
6 7 18 225.71 54.3
6 7 18 196.79 53.9
6 7 19 279.98 57.72
6 7 19 256.95 63.76
6 7 20 126.23 43.4
6 7 20 89.69 41.61
6 7 21 452.88 74.59
6 7 22 51.86 28.37
6 8 -6 1105.52 73.15
6 8 -5 323.29 41.16
6 8 -4 273.64 37.01
6 8 -3 730.55 59.27
6 8 0 4.6 9.76
6 8 1 799.29 51.43
6 8 2 360.64 58.16
6 8 3 378.94 55.29
6 8 4 767.57 77.08
6 8 5 186.1 41.57
6 8 6 862.51 82.04
6 8 7 72.38 30.89
6 8 8 666.67 74.13
6 8 9 829.12 84.07
6 8 9 904.83 99.51
6 8 10 327.29 55.54
6 8 10 262.26 55.67
6 8 11 322.65 53.73
6 8 11 448.37 74.57
6 8 12 75.12 31.13
6 8 12 129.79 44.21
6 8 13 408.49 63.01
6 8 13 363.44 68.77
6 8 14 51.26 42.41
6 8 14 21.64 21.62
6 8 15 294.37 64.49
6 8 15 267.36 56.03
6 8 16 144.56 44.5
6 8 16 158.48 46.9
6 8 17 225.48 51.39
6 8 17 185.31 55.89
6 8 18 54.86 27.08
6 8 18 60.98 39.42
6 8 19 27.1 22.14
6 8 19 111.29 43.18
6 8 20 136.75 43.35
6 8 20 123.83 47.97
6 8 21 -18.14 25.57
6 8 21 3.64 31.47
6 8 22 125.61 44.85
6 9 -6 31.59 17.16
6 9 -5 262.89 38.51
6 9 -4 76.85 21.7
6 9 -3 137.96 29.34
6 9 2 179.87 41.03
6 9 3 1157.62 96.75
6 9 4 151.19 41.18
6 9 5 181.78 42.77
6 9 6 245.55 45.88
6 9 7 38.81 26.82
6 9 8 398.95 60.76
6 9 9 65.97 34.18
6 9 9 6.67 18.86
6 9 10 989.52 96.43
6 9 10 1016.21 113.64
6 9 11 40.3 30.76
6 9 11 45.67 27.05
6 9 12 351.61 58.89
6 9 12 302.07 64.09
6 9 13 6.21 16.51
6 9 13 14.98 31
6 9 14 243.74 50.41
6 9 14 271.64 66.74
6 9 15 101.1 49.79
6 9 15 78.23 32.74
6 9 16 149.55 50.84
6 9 16 160.66 40.97
6 9 17 149.96 43.56
6 9 17 148.87 49.07
6 9 18 -4.15 23.4
6 9 18 -43.21 25.8
6 9 19 293.72 59.59
6 9 19 264.13 67.68
6 9 20 50.4 33.56
6 9 20 -11.66 36.06
6 9 21 147.59 44.08
6 9 21 217.61 62.77
6 9 22 78.08 35.12
6 9 22 57.63 39.71
6 10 -6 4.19 16.32
6 10 -5 841.21 73.72
6 10 -4 87.94 30.8
6 10 -3 1113.45 84.93
6 10 -2 361.24 53.54
6 10 2 1863.12 128.36
6 10 3 224.53 54.92
6 10 4 1681.9 123.41
6 10 5 486.8 70.96
6 10 6 767.87 85.14
6 10 7 884.12 90.73
6 10 8 321.99 58.45
6 10 9 352.37 58.93
6 10 9 243.22 60.66
6 10 10 22.63 24.51
6 10 10 23.79 21.35
6 10 11 270.92 65.57
6 10 11 304.15 54.77
6 10 12 90.12 38.44
6 10 12 99.04 47.69
6 10 13 401.01 63.59
6 10 13 322.16 73.46
6 10 14 173.01 44.83
6 10 14 179.14 60
6 10 15 36.58 42.56
6 10 15 35.69 28.52
6 10 16 194.94 59.48
6 10 16 182.7 49.21
6 10 17 11.79 19.54
6 10 17 -45.27 36.78
6 10 18 104.98 37.09
6 10 18 115.17 49.02
6 10 19 35.5 30.86
6 10 19 63.7 31.79
6 10 20 136.46 43.59
6 10 20 133.86 54.01
6 10 21 55.8 34.13
6 10 21 -55.51 38.51
6 10 22 55.28 35.58
6 11 -6 454.48 57.99
6 11 -5 79.19 28.91
6 11 -4 190.79 38.29
6 11 -3 307.46 47.1
6 11 -2 91.02 31.36
6 11 -1 502.42 60.37
6 11 2 89.69 40.36
6 11 3 532.62 71.12
6 11 4 131.48 42.39
6 11 5 492.59 69.51
6 11 6 105.31 36.14
6 11 7 226.34 51.65
6 11 8 453.27 69.17
6 11 9 38.45 31.81
6 11 9 -22.16 37.36
6 11 10 527.76 74.58
6 11 10 528.34 91.15
6 11 11 35.23 30.82
6 11 11 39.89 25.27
6 11 12 251.82 54.94
6 11 12 219.18 63.37
6 11 13 92.41 32.38
6 11 13 47.57 32.6
6 11 14 75.16 30.54
6 11 14 111.83 51.73
6 11 15 179.58 49.52
6 11 15 161.13 56.48
6 11 16 48.71 38.64
6 11 16 68.39 31.75
6 11 17 151.23 54.3
6 11 17 182.95 49.69
6 11 18 73.56 33.22
6 11 18 84.47 46.92
6 11 19 -40.28 32.3
6 11 19 -56.18 43.66
6 11 20 143.27 47.84
6 11 20 25.77 33.69
6 12 -6 62.19 30.3
6 12 -5 105.49 36.14
6 12 -4 161.96 40.07
6 12 -3 167.83 37.95
6 12 -2 359.71 53.68
6 12 -1 213.15 45.51
6 12 2 366.23 60.35
6 12 3 450.77 66.62
6 12 4 111.98 41.15
6 12 5 608.53 80.89
6 12 6 135.38 48.22
6 12 7 371.21 62.28
6 12 8 12.02 21.37
6 12 9 67.08 32.45
6 12 10 135.86 51.47
6 12 10 127.81 39.27
6 12 11 135.18 43.29
6 12 11 131.82 53.01
6 12 12 128.87 40.21
6 12 12 188.19 62.77
6 12 13 -2.98 20.67
6 12 13 22.34 27.15
6 12 14 443.41 70.74
6 12 14 418.08 89.31
6 12 15 97.64 35.52
6 12 15 53.24 41.65
6 12 16 105.14 51.47
6 12 16 174.08 46.37
6 12 17 131.94 43.89
6 12 17 152.1 49.67
6 12 18 75.11 36.69
6 12 18 41.8 32.8
6 12 19 -3.17 25.08
6 13 -5 185.05 39.48
6 13 -4 33.89 22.36
6 13 -3 277.88 52.05
6 13 -2 80.14 35.93
6 13 -1 89.6 33.39
6 13 0 202.63 44.85
6 13 1 235.86 55.21
6 13 2 680.77 86.86
6 13 3 364.81 67.58
6 13 4 293.37 57.97
6 13 5 69.19 34.7
6 13 6 139.86 40.2
6 13 7 233.28 55.31
6 13 8 196.13 48.74
6 13 9 298.94 57.41
6 13 10 70.58 34.3
6 13 11 295.55 62.39
6 13 11 191.82 65.02
6 13 12 9.02 25.57
6 13 12 -23.42 25.9
6 13 13 312.92 61.26
6 13 13 216.89 69.91
6 13 14 29.66 29.14
6 13 14 -7.6 27.99
6 13 15 209.8 52.55
6 13 15 140.94 64.14
6 13 16 45.37 25.38
6 13 17 -10.21 24.25
6 13 18 223.31 58.65
6 14 -5 11.43 17.64
6 14 -4 274.07 53.18
6 14 -3 25.37 24.37
6 14 -2 321.85 59.25
6 14 -1 363.64 64.25
6 14 0 291.46 58.87
6 14 1 418.92 73.57
6 14 1 465.4 70.39
6 14 2 194.98 51.19
6 14 3 592.05 84.26
6 14 4 405.56 73.76
6 14 5 612.66 85.19
6 14 6 338.29 64.76
6 14 7 134.26 45.55
6 14 8 398.32 69.6
6 14 9 122.75 44.61
6 14 10 158.43 46.03
6 14 11 -13.78 21.24
6 14 12 189.78 52.31
6 14 12 91.86 48.82
6 14 13 154.21 47.16
6 14 14 7.99 27
6 14 15 191.37 51.43
6 15 -5 209.37 51.15
6 15 -4 78.12 32.87
6 15 -3 70.84 30.84
6 15 -2 226.11 48.73
6 15 -1 108.9 41.24
6 15 0 420.11 69.35
6 15 1 154.98 48.55
6 15 1 166.27 55.47
6 15 2 530.56 78.79
6 15 2 625.66 88.98
6 15 3 243.55 55.83
6 15 3 370.42 73.9
6 15 4 384.71 69.74
6 15 5 419.14 73.43
6 15 6 201.51 51.41
6 15 7 257.65 56.42
6 15 8 115.53 46.4
6 15 9 263.08 59.79
6 15 10 79.7 37.93
6 15 11 265.34 58.61
6 15 12 142.02 44.55
6 16 -1 193.52 52.23
6 16 0 54.02 38.54
6 16 0 96.17 44.97
6 16 1 97.13 39.41
6 16 1 223.76 58.54
6 16 2 256.6 62.66
6 16 3 212.39 57.42
6 16 4 156.93 45.79
6 16 5 60.19 35.22
6 16 6 162.53 46.01
6 16 7 118.39 43.68
6 16 8 148.86 46.32
7 -12 -6 123.66 44.67
7 -12 -5 178.62 52.07
7 -12 -4 228.76 58.81
7 -12 -3 48.14 31.7
7 -12 -2 228.91 57.66
7 -12 -1 41.66 31.13
7 -12 0 272.27 60.24
7 -12 1 104.73 44.65
7 -12 2 193.49 56.34
7 -12 3 449.05 77.65
7 -12 4 30.59 28.97
7 -11 -11 74.34 47.89
7 -11 -10 160.21 56.82
7 -11 -9 8.61 32.49
7 -11 -8 66.16 35.14
7 -11 -7 259.06 58.14
7 -11 -6 70.44 37.84
7 -11 -5 205.98 53.72
7 -11 -4 87.1 40.9
7 -11 -3 446.71 76.4
7 -11 -2 91.92 40.09
7 -11 -1 222.1 54.11
7 -11 0 150.91 47.27
7 -11 1 174.99 50.86
7 -11 2 108.8 36.9
7 -11 3 93.54 36.33
7 -11 4 191.28 53.06
7 -11 5 43.23 27.94
7 -11 6 96.67 42.01
7 -11 7 150.17 48.32
7 -11 8 30.89 30.5
7 -11 9 145.71 45.97
7 -11 10 20.12 24.13
7 -11 11 59.82 39.81
7 -10 -14 57.43 42.06
7 -10 -13 300.42 75.19
7 -10 -12 7.63 29.03
7 -10 -11 263.56 67.3
7 -10 -10 123.45 50.46
7 -10 -9 112.48 43.76
7 -10 -8 187.79 54.18
7 -10 -8 245.83 65.24
7 -10 -7 83.73 38.75
7 -10 -7 89.12 47.1
7 -10 -6 292.65 64.35
7 -10 -5 21.07 24.15
7 -10 -4 230.93 53.89
7 -10 -3 62.25 34.71
7 -10 -2 75.38 32.27
7 -10 -1 144.97 40.63
7 -10 0 70.34 33.35
7 -10 1 261.48 54.6
7 -10 2 21.45 26.96
7 -10 3 134.08 41.73
7 -10 4 88.68 37.55
7 -10 5 221.84 54.64
7 -10 6 108.79 37.07
7 -10 7 68.72 38.59
7 -10 7 112.3 35.47
7 -10 8 212.71 51.02
7 -10 8 177.68 48.81
7 -10 9 -0.03 24.02
7 -10 9 -69.6 37.66
7 -10 10 176.48 51.36
7 -10 10 161.27 48.97
7 -10 11 20.33 23.36
7 -10 11 53.05 31.52
7 -10 12 55.71 35.89
7 -10 12 -12.27 24.55
7 -9 -16 100.45 46.25
7 -9 -15 -21.44 36.99
7 -9 -14 399.4 76.71
7 -9 -13 107.36 54.5
7 -9 -12 516.1 88.95
7 -9 -11 114.26 45.65
7 -9 -10 221.23 60.13
7 -9 -9 262.56 56.9
7 -9 -9 411.16 78.61
7 -9 -8 73.33 34.84
7 -9 -8 112.83 48.01
7 -9 -7 273.9 65.03
7 -9 -7 210.92 51.08
7 -9 -6 49.29 31.24
7 -9 -6 57.94 40.7
7 -9 -5 244.17 54.79
7 -9 -4 257.26 53.1
7 -9 -3 149.42 41.79
7 -9 -2 427.11 67.78
7 -9 -1 152.13 43.16
7 -9 0 390.4 63.19
7 -9 1 40.39 26.15
7 -9 2 99.27 35.53
7 -9 3 288.28 55.83
7 -9 4 89.85 31.91
7 -9 4 71.71 27.76
7 -9 5 240.38 49.16
7 -9 5 192.3 37.88
7 -9 6 11.42 21.61
7 -9 6 28.65 23.16
7 -9 7 418.37 62.09
7 -9 7 405.73 67.66
7 -9 8 43.24 19.78
7 -9 8 20.77 30.63
7 -9 9 442.33 74.31
7 -9 9 388.14 64.77
7 -9 10 96.36 42.12
7 -9 10 89.86 35.74
7 -9 11 122.92 41.16
7 -9 11 103.43 35.95
7 -9 12 30.39 21.26
7 -9 13 -4.21 21.16
7 -8 -17 53.15 33.84
7 -8 -16 -31.62 30.5
7 -8 -15 280.61 64.55
7 -8 -14 121.82 45.86
7 -8 -13 104.93 39.28
7 -8 -12 139.6 47.08
7 -8 -11 -11.8 21.15
7 -8 -10 322.61 68.36
7 -8 -9 15.72 21.64
7 -8 -9 22.5 29.38
7 -8 -8 243.77 52.89
7 -8 -8 182.9 50.55
7 -8 -7 144.29 38.15
7 -8 -7 221.99 57.83
7 -8 -6 231.95 50.28
7 -8 -6 214.03 49.76
7 -8 -5 280.32 54.72
7 -8 -5 222.47 54
7 -8 -4 25.94 21.85
7 -8 -3 41.69 22.88
7 -8 -2 69.39 30.98
7 -8 -1 20.94 20.56
7 -8 0 13.89 17.25
7 -8 1 259.61 52.51
7 -8 1 229.97 36.51
7 -8 2 243.37 48.98
7 -8 2 164.88 32.65
7 -8 3 100.58 32.54
7 -8 3 100.12 31.32
7 -8 4 155.19 40.19
7 -8 4 226.13 40.52
7 -8 5 1.48 18.11
7 -8 5 -1.64 16.01
7 -8 6 181.36 45
7 -8 6 207.26 42.63
7 -8 7 8.28 15.93
7 -8 7 32.39 19.66
7 -8 8 103.17 33.31
7 -8 9 99.94 37.26
7 -8 10 36.37 22.42
7 -8 11 196.81 46.7
7 -8 12 14.63 22.55
7 -8 13 160.61 50.34
7 -8 14 46.11 33.15
7 -8 15 -0.96 30.45
7 -7 -18 147.4 51.74
7 -7 -17 40.04 36.03
7 -7 -16 167.21 55.45
7 -7 -15 82.86 40.62
7 -7 -14 30.03 25.84
7 -7 -13 191.16 52.61
7 -7 -12 -14.09 21.06
7 -7 -11 483.87 80.7
7 -7 -10 24.95 23.76
7 -7 -10 30.19 28.88
7 -7 -9 463.36 68.79
7 -7 -9 445.11 75.3
7 -7 -8 131.19 38.84
7 -7 -8 196.59 53.59
7 -7 -7 68.36 30.2
7 -7 -7 109.96 44.73
7 -7 -6 345.72 58.12
7 -7 -6 367.01 68.18
7 -7 -5 307.46 56.96
7 -7 -5 324.58 67.5
7 -7 -4 1206.65 104.92
7 -7 -4 1245.27 118.79
7 -7 -3 206.66 54.54
7 -7 -2 2817.29 159.98
7 -7 -1 654.96 50.89
7 -7 -1 785.51 84.27
7 -7 0 829.28 60.91
7 -7 0 1030.04 96.5
7 -7 1 926.8 66.91
7 -7 1 1141.94 102.07
7 -7 2 80.52 38.42
7 -7 2 74.98 25.05
7 -7 3 257.5 39.81
7 -7 3 376.13 61.17
7 -7 4 42.34 26.02
7 -7 4 19.79 16.99
7 -7 5 353.27 59.56
7 -7 5 283.66 46.87
7 -7 6 171.92 37.87
7 -7 7 230.38 43.18
7 -7 8 246.55 46.03
7 -7 9 18.92 19.24
7 -7 10 95.48 37.58
7 -7 11 5.38 18.51
7 -7 12 270.05 54.42
7 -7 13 107.99 30.39
7 -7 14 30.39 21.72
7 -7 15 121.75 43.81
7 -7 16 14.71 26.34
7 -6 -19 147.04 50.6
7 -6 -18 8.16 28.64
7 -6 -17 165.63 47.06
7 -6 -16 253.59 61.28
7 -6 -15 10.74 27.45
7 -6 -14 237.33 56.65
7 -6 -13 124.16 47.05
7 -6 -12 184.8 49.73
7 -6 -11 12.21 23.2
7 -6 -10 16.99 18.02
7 -6 -10 36.79 30.93
7 -6 -9 351.81 58.13
7 -6 -9 368.69 66.54
7 -6 -8 76.45 28.28
7 -6 -8 22.21 18.89
7 -6 -7 606 72.92
7 -6 -7 714.4 87.46
7 -6 -6 42.54 27.86
7 -6 -6 62.42 34.83
7 -6 -5 706.33 77.99
7 -6 -5 935.73 99.25
7 -6 -4 35.74 26.67
7 -6 -4 44.92 32.4
7 -6 -3 229.24 24.44
7 -6 -3 210.92 40.93
7 -6 -3 346.31 60.1
7 -6 -2 137.28 36.97
7 -6 -2 93.96 18.99
7 -6 -1 95.94 31.69
7 -6 -1 45.21 17.96
7 -6 0 293.13 34.94
7 -6 0 378.33 55.52
7 -6 1 19.8 18.08
7 -6 1 31.53 16.22
7 -6 2 787.11 82.25
7 -6 2 707.17 59.09
7 -6 3 227.5 45.63
7 -6 3 187.11 34.1
7 -6 4 609.22 60.38
7 -6 5 170.18 36.64
7 -6 6 209.73 40.17
7 -6 6 199.74 37.31
7 -6 7 72.8 25.35
7 -6 7 101.85 31.35
7 -6 8 66.25 25.4
7 -6 8 72.62 29.06
7 -6 9 212.87 40.38
7 -6 9 235.78 45.51
7 -6 10 -3.47 16.68
7 -6 10 -12.51 22.64
7 -6 11 219.12 47.39
7 -6 12 54.61 23.09
7 -6 13 96.46 35.32
7 -6 14 163.24 44.45
7 -6 15 39.46 32.71
7 -6 16 248.46 59.03
7 -6 17 29.71 24.01
7 -5 -20 0.16 21.8
7 -5 -19 29.44 24.94
7 -5 -18 124.64 42.39
7 -5 -17 215.86 54.35
7 -5 -16 49.64 30.28
7 -5 -15 343.84 66.46
7 -5 -14 1.16 20.36
7 -5 -13 301.46 57.77
7 -5 -12 54.38 30.83
7 -5 -11 603.11 80.25
7 -5 -10 781.08 81.26
7 -5 -10 814.74 92.31
7 -5 -9 165.33 41.02
7 -5 -9 125.13 41.74
7 -5 -8 778.82 79.73
7 -5 -8 896.19 95.42
7 -5 -7 28.92 18.53
7 -5 -7 24.85 30.84
7 -5 -6 143.44 36.91
7 -5 -6 149.74 43.7
7 -5 -5 484.91 60.96
7 -5 -5 518.22 72.82
7 -5 -4 256.63 22.41
7 -5 -4 370.98 56.02
7 -5 -4 466.38 69.28
7 -5 -3 940 85.29
7 -5 -3 894.75 91.51
7 -5 -2 219.5 43.84
7 -5 -2 191.54 47.74
7 -5 -1 741.69 73.84
7 -5 0 138.25 35.31
7 -5 0 86.15 33.39
7 -5 1 1040.43 81.7
7 -5 1 1080.56 91.77
7 -5 2 104.62 26.9
7 -5 3 202.7 40.71
7 -5 4 340.52 49.21
7 -5 5 130.88 28.87
7 -5 6 937.51 78.35
7 -5 7 21.56 18.01
7 -5 8 894.02 76.07
7 -5 9 252.04 42.86
7 -5 9 201.79 44.17
7 -5 10 89.31 28.58
7 -5 10 58.91 21.5
7 -5 11 325.94 46.9
7 -5 11 275.4 49.38
7 -5 12 79.84 33.55
7 -5 13 269.75 52.91
7 -5 14 7.98 23.97
7 -5 15 272.75 54.43
7 -5 16 22.3 18.96
7 -5 17 52.82 29.39
7 -5 18 60.81 27.59
7 -4 -21 153.37 51.24
7 -4 -20 -29.19 28.4
7 -4 -19 9.97 20.53
7 -4 -18 210.6 55.2
7 -4 -17 -3.85 24.36
7 -4 -16 274.53 60.07
7 -4 -15 18.7 19.32
7 -4 -14 374.4 63.83
7 -4 -13 193.86 47.96
7 -4 -12 49.51 30.53
7 -4 -11 804.12 90.13
7 -4 -10 67.93 28.7
7 -4 -10 21.58 21.97
7 -4 -9 544.35 65.86
7 -4 -9 544.73 71.15
7 -4 -8 146.33 35.55
7 -4 -8 172.63 44.07
7 -4 -7 539.44 63.11
7 -4 -7 459.02 64.64
7 -4 -6 1595.5 106.88
7 -4 -6 1745.65 123.09
7 -4 -5 593.07 64.93
7 -4 -5 644.42 76.58
7 -4 -4 684.01 68.23
7 -4 -4 557.88 38.88
7 -4 -4 623.03 73.26
7 -4 -3 24.62 19.83
7 -4 -3 10.62 13.74
7 -4 -3 12.07 5.82
7 -4 -3 1.68 19.72
7 -4 -2 263.09 41.33
7 -4 -2 196.12 34.9
7 -4 -2 237.23 20.47
7 -4 -2 238.61 43.63
7 -4 -1 33.26 20.36
7 -4 -1 -7.89 20.95
7 -4 -1 14.64 6.8
7 -4 0 125.79 32.41
7 -4 0 103.03 28.63
7 -4 0 130.83 20.81
7 -4 1 413.72 51.06
7 -4 1 370.01 35.11
7 -4 2 245.72 41.09
7 -4 2 264.72 31.72
7 -4 3 1412.89 93.56
7 -4 3 1094.21 67.87
7 -4 4 408.24 52.16
7 -4 4 431.54 45.49
7 -4 5 921.01 74.36
7 -4 5 817.1 63.47
7 -4 6 13.09 18.7
7 -4 6 20.86 16.59
7 -4 7 636.63 61.27
7 -4 7 752.51 66.76
7 -4 8 510.2 56.85
7 -4 8 514.95 57.37
7 -4 9 207.93 39.14
7 -4 9 185.17 37.42
7 -4 10 318.84 44.37
7 -4 10 255.35 45.49
7 -4 11 7.4 14.08
7 -4 11 27.49 21.3
7 -4 12 496.48 55.79
7 -4 12 477.06 64.56
7 -4 13 14.69 20.72
7 -4 14 228.09 49.17
7 -4 14 282.37 55.01
7 -4 15 142.71 38.98
7 -4 16 89.69 33.16
7 -4 17 42.58 32.43
7 -4 18 -12.38 22.71
7 -4 19 276.43 59.08
7 -3 -21 166.78 60.4
7 -3 -20 1.35 27.29
7 -3 -19 116.32 42.44
7 -3 -18 8.36 21.64
7 -3 -17 53.38 25.53
7 -3 -16 86.95 38.87
7 -3 -15 30.1 29.54
7 -3 -14 54.9 28.73
7 -3 -13 4.97 18.12
7 -3 -12 104.52 34.71
7 -3 -11 2.98 20.58
7 -3 -10 350.07 50.37
7 -3 -10 368.09 57.2
7 -3 -9 246.65 41.96
7 -3 -9 297.16 49.83
7 -3 -8 188.92 38.09
7 -3 -8 184.52 45.8
7 -3 -8 174.16 16.88
7 -3 -8 249.05 48.28
7 -3 -7 526.7 27.75
7 -3 -7 645.88 65.53
7 -3 -7 669.07 73.57
7 -3 -7 520.62 66.03
7 -3 -6 17.39 8.62
7 -3 -6 39.73 10.95
7 -3 -6 44.69 21.89
7 -3 -6 43.7 25.6
7 -3 -6 31.55 21.31
7 -3 -5 376.68 51.55
7 -3 -5 405.13 32.37
7 -3 -5 455.03 54.23
7 -3 -5 429.46 57.91
7 -3 -5 406.7 55.2
7 -3 -5 398.65 24.48
7 -3 -4 83.97 30.08
7 -3 -4 72.98 15.32
7 -3 -4 111.14 27.59
7 -3 -4 84.18 14.38
7 -3 -4 123.97 35.21
7 -3 -4 92.05 30.84
7 -3 -3 367.05 35.7
7 -3 -3 327.35 45.94
7 -3 -3 446.97 53.59
7 -3 -3 457.49 29.68
7 -3 -3 434.78 58.12
7 -3 -3 375.9 52.05
7 -3 -2 674.89 66.02
7 -3 -2 616.81 62.96
7 -3 -2 674.32 72
7 -3 -2 689.85 67.61
7 -3 -2 676.61 39.22
7 -3 -1 1241.72 86.1
7 -3 -1 1342.93 58.85
7 -3 -1 1266.81 95.95
7 -3 -1 1188.72 86.58
7 -3 0 607.33 59.78
7 -3 0 501.92 38.45
7 -3 0 657.06 62.36
7 -3 1 193.67 34.44
7 -3 1 221.66 27.17
7 -3 1 185.26 32.3
7 -3 2 167.49 25.5
7 -3 2 191.12 34.59
7 -3 2 174.78 33.06
7 -3 3 51.34 17.61
7 -3 3 35.62 19.44
7 -3 3 18.93 11.86
7 -3 4 522.9 54.9
7 -3 4 400.12 44.69
7 -3 4 540.02 52.09
7 -3 5 9.15 12.47
7 -3 5 -14.64 16.23
7 -3 5 3.62 10.39
7 -3 6 570.81 55.96
7 -3 6 570.28 56.35
7 -3 7 248.68 38.67
7 -3 7 383.01 46.84
7 -3 8 25.57 16.08
7 -3 8 9.17 17.61
7 -3 9 265.97 43.8
7 -3 10 32.63 19.14
7 -3 11 62.99 25
7 -3 12 14.34 16.79
7 -3 13 36.49 23.96
7 -3 14 64.27 24.93
7 -3 15 83.04 33.08
7 -3 16 116.02 37.47
7 -3 17 23.54 20.79
7 -3 18 47.77 30.77
7 -3 18 48.28 29.63
7 -3 19 -40.77 30.38
7 -2 -22 83.11 48.73
7 -2 -21 10.47 23.55
7 -2 -20 33.19 32.09
7 -2 -19 -12.94 29.68
7 -2 -18 40.81 27.53
7 -2 -17 45.44 22.67
7 -2 -16 84.25 34.13
7 -2 -15 228.12 50.96
7 -2 -14 27.84 18.99
7 -2 -13 151.29 42.68
7 -2 -12 17.1 17.56
7 -2 -12 -39.54 30.54
7 -2 -11 114.92 31.53
7 -2 -11 104.47 35.52
7 -2 -10 374.48 55.82
7 -2 -10 426.6 53.21
7 -2 -10 394.84 58.59
7 -2 -9 44.42 21.31
7 -2 -9 53.32 20.83
7 -2 -9 55.74 26.68
7 -2 -8 1060.42 50.83
7 -2 -8 1083.6 79.86
7 -2 -8 1122.6 90.88
7 -2 -8 946.8 87.63
7 -2 -7 200.32 35.41
7 -2 -7 244.48 25.15
7 -2 -7 221.28 35.73
7 -2 -7 238.23 24.56
7 -2 -7 189.65 40.7
7 -2 -7 273.04 46.68
7 -2 -6 792.17 70.71
7 -2 -6 788.17 43.89
7 -2 -6 854.45 48.3
7 -2 -6 787.14 66.56
7 -2 -6 901.39 80.06
7 -2 -6 882.03 80.3
7 -2 -5 585.97 60.12
7 -2 -5 639.1 43.79
7 -2 -5 613.07 57.62
7 -2 -5 569.84 36.44
7 -2 -5 593.87 65.15
7 -2 -5 634.22 67.72
7 -2 -4 859.4 72.18
7 -2 -4 965.5 57.06
7 -2 -4 1003.28 48.2
7 -2 -4 953.17 72.59
7 -2 -4 1062.41 84.57
7 -2 -4 887.65 77.78
7 -2 -3 1367.18 89.16
7 -2 -3 1207.57 66.86
7 -2 -3 1321.55 57.43
7 -2 -3 1358.31 87.64
7 -2 -3 1326.08 93.8
7 -2 -3 1323.36 92.95
7 -2 -2 44.84 15.48
7 -2 -2 6.9 13.76
7 -2 -2 17.58 13.54
7 -2 -2 39.18 21.4
7 -2 -2 1.17 14.88
7 -2 -1 25.1 14.66
7 -2 -1 12.8 12.57
7 -2 -1 27.25 11.76
7 -2 -1 48.15 21.03
7 -2 0 2.81 15.3
7 -2 0 32.29 15.46
7 -2 0 -12.05 19.41
7 -2 1 895.13 69.37
7 -2 1 906.45 67.59
7 -2 1 921.97 55.93
7 -2 2 91.45 25.99
7 -2 2 166.02 27.74
7 -2 2 73.64 21.86
7 -2 3 1538.36 92.13
7 -2 3 1644.99 84.55
7 -2 3 1713.97 89.91
7 -2 4 275.53 36.79
7 -2 4 356.16 40.25
7 -2 5 129.29 25.35
7 -2 5 95.63 22.46
7 -2 6 1209.41 81.13
7 -2 6 1293.71 72.3
7 -2 7 326.65 45.26
7 -2 7 287.73 32.99
7 -2 8 241.22 37.17
7 -2 8 309.64 32.78
7 -2 9 10.71 13.13
7 -2 9 7.93 9.02
7 -2 10 270.55 44.36
7 -2 11 139.99 34.57
7 -2 12 -28.01 24.09
7 -2 13 366.24 56.46
7 -2 14 47.62 24.54
7 -2 15 206.78 44.73
7 -2 16 2.65 20.78
7 -2 17 179.22 46.46
7 -2 18 18.68 19.65
7 -2 19 67.16 30.98
7 -2 20 131.18 44.04
7 -2 20 74.72 35.6
7 -1 -22 53.7 42
7 -1 -21 70.89 39.03
7 -1 -20 25.72 27.05
7 -1 -19 56.57 31.22
7 -1 -18 377.27 67.51
7 -1 -17 17.27 19.69
7 -1 -16 541.66 77.14
7 -1 -15 51.09 29.25
7 -1 -15 116.3 39.92
7 -1 -14 182.24 46.46
7 -1 -14 172.14 46.46
7 -1 -13 3.84 20.01
7 -1 -13 26.41 27.88
7 -1 -12 348.07 54.97
7 -1 -12 278.54 51.83
7 -1 -11 1167.49 103.91
7 -1 -11 991.92 88.85
7 -1 -10 688.37 78.07
7 -1 -10 653.28 72.2
7 -1 -9 665.79 60.59
7 -1 -9 772.95 80.44
7 -1 -9 701.34 72.59
7 -1 -8 28.26 18.66
7 -1 -8 22.75 16.13
7 -1 -8 37.1 11.61
7 -1 -8 29.55 12.35
7 -1 -8 56.29 25.71
7 -1 -7 306.3 44.98
7 -1 -7 266.39 41.1
7 -1 -7 278.02 30.4
7 -1 -7 298.2 39.17
7 -1 -7 273.34 45.51
7 -1 -6 206.3 40.8
7 -1 -6 145.89 33.9
7 -1 -6 160.48 24.7
7 -1 -6 170.03 31.22
7 -1 -6 181.08 36.25
7 -1 -5 502.63 54.03
7 -1 -5 476.9 39.25
7 -1 -5 542.9 52.18
7 -1 -5 554.33 58.19
7 -1 -5 460.52 55.52
7 -1 -4 336.11 45.16
7 -1 -4 236.66 27.93
7 -1 -4 242.49 38.66
7 -1 -4 264.4 38.6
7 -1 -4 161.98 34.35
7 -1 -3 156.32 31
7 -1 -3 159.64 30.27
7 -1 -3 186.75 31.49
7 -1 -3 232.76 27.34
7 -1 -3 205.4 37.16
7 -1 -2 498.8 51.25
7 -1 -2 512.83 31.94
7 -1 -2 553.36 41.55
7 -1 -2 554.04 57.37
7 -1 -2 460.65 49.97
7 -1 -1 37.96 19.05
7 -1 -1 23.69 19.74
7 -1 -1 23.15 9.8
7 -1 -1 25.93 15.14
7 -1 -1 -0.85 12.88
7 -1 0 812.8 51.78
7 -1 0 587.14 54.06
7 -1 1 217.71 29.24
7 -1 1 332.12 39.19
7 -1 2 297.72 34.38
7 -1 2 356.7 40.77
7 -1 3 817.06 60.19
7 -1 3 645.9 53.58
7 -1 4 74.08 22.17
7 -1 5 513.13 50.05
7 -1 6 25.23 16.14
7 -1 7 464.49 53.64
7 -1 8 374.8 48.6
7 -1 9 1197.71 87.35
7 -1 9 788.31 47.61
7 -1 10 600.03 64.44
7 -1 10 798.82 45.76
7 -1 11 118.01 30.7
7 -1 12 193.15 40.3
7 -1 13 27.7 16.5
7 -1 14 391.2 59.37
7 -1 15 9.67 20.75
7 -1 16 353.56 59.99
7 -1 17 71.71 31.58
7 -1 18 133.41 42.77
7 -1 19 72.77 30.83
7 -1 20 -31.44 26.66
7 -1 21 89.88 39.45
7 0 -22 125.34 50.04
7 0 -21 110.11 43.48
7 0 -20 117.77 47.67
7 0 -19 158.96 49.75
7 0 -18 -44.84 37.31
7 0 -17 270.57 60.68
7 0 -17 338.78 63.62
7 0 -16 105.9 43.15
7 0 -16 103.29 37.76
7 0 -15 440.31 66.69
7 0 -15 487.56 72.57
7 0 -14 764.55 88.84
7 0 -14 860.05 93.05
7 0 -13 262.67 51.5
7 0 -13 289.27 54.6
7 0 -12 202.9 44.35
7 0 -12 238.22 48.99
7 0 -11 148.36 35.46
7 0 -11 159.29 35.55
7 0 -10 549.08 66.13
7 0 -10 490.75 62.24
7 0 -9 254.47 45.58
7 0 -9 244.35 41.61
7 0 -9 282.46 41.25
7 0 -9 230.55 33.5
7 0 -8 324.06 48.63
7 0 -8 408.09 47.59
7 0 -8 395.87 41.63
7 0 -8 390.14 51.31
7 0 -7 351.27 45.6
7 0 -7 390.12 41.55
7 0 -7 353.08 46.75
7 0 -7 393.69 51.59
7 0 -6 1640.89 95.63
7 0 -6 1856.01 89.95
7 0 -6 1707.92 99.89
7 0 -6 1537.55 101.57
7 0 -5 541.21 54.15
7 0 -5 499.62 47.33
7 0 -5 453.26 51.07
7 0 -4 611.49 55.71
7 0 -4 617.93 52.17
7 0 -4 662.41 49.5
7 0 -4 623.69 57.3
7 0 -4 614.21 61.54
7 0 -3 566.38 53.52
7 0 -3 549.15 45.25
7 0 -3 542.67 51.12
7 0 -2 143.52 24.29
7 0 -2 139.7 14.36
7 0 -2 137.55 26.97
7 0 -1 2001.5 98.01
7 0 -1 2044.93 88.27
7 0 0 542.29 46.16
7 0 0 452.35 45.27
7 0 1 1026.14 63.11
7 0 2 470.41 44.4
7 0 3 105 23.86
7 0 4 1491.16 84.24
7 0 5 487.3 51.76
7 0 6 1027.25 75.72
7 0 7 275.01 39.93
7 0 8 440.43 52.11
7 0 9 84.45 24.89
7 0 10 135.66 33.32
7 0 11 230.71 42.31
7 0 12 3.91 15.72
7 0 13 609.43 68.89
7 0 14 22.15 24.25
7 0 15 519.97 68.2
7 0 16 278.27 54.32
7 0 17 79.82 33.81
7 0 18 146 42.02
7 0 19 16.18 25.1
7 0 20 290.92 58.53
7 0 21 54.81 32.56
7 1 -22 -19.11 41.4
7 1 -21 87.7 46.56
7 1 -20 254.04 62.76
7 1 -19 63.3 32.15
7 1 -18 286.73 64.97
7 1 -18 304.98 59.18
7 1 -17 20.07 32.03
7 1 -17 72.37 39.71
7 1 -16 249.69 56.41
7 1 -16 227.61 53.66
7 1 -15 10.38 24.21
7 1 -15 104.91 39.32
7 1 -14 35.73 27.13
7 1 -14 41.48 31.7
7 1 -13 233.82 49.04
7 1 -13 246.47 47.83
7 1 -12 258.68 47.24
7 1 -12 263.53 49.95
7 1 -11 420.41 59.69
7 1 -11 379.68 57.28
7 1 -10 57.95 27.4
7 1 -10 61.93 26.5
7 1 -10 45.63 18.14
7 1 -9 227.02 42.34
7 1 -9 218.6 38.99
7 1 -9 225.27 37.33
7 1 -8 307.55 44.28
7 1 -8 335.56 48.03
7 1 -8 357.81 44.26
7 1 -8 315.12 35.64
7 1 -7 229.13 38.41
7 1 -7 214.31 35.63
7 1 -7 268.5 32.29
7 1 -6 197.72 33.84
7 1 -6 235.35 36
7 1 -6 188.32 27.99
7 1 -5 43.77 18.6
7 1 -5 26.15 18.38
7 1 -5 36.18 12.88
7 1 -4 1258.58 69.83
7 1 -4 1218.82 76.43
7 1 -3 144.12 28.86
7 1 -3 124.93 25.22
7 1 -2 1357 78.03
7 1 -2 1281.49 73.43
7 1 -1 424.66 44.21
7 1 -1 303.41 35.57
7 1 0 96.41 22.51
7 1 0 95.16 20.07
7 1 1 1542.3 82.76
7 1 2 75.86 23.57
7 1 3 1438.28 83.58
7 1 4 24.75 15.6
7 1 5 220.34 35.52
7 1 6 460.21 51.87
7 1 7 63 23.25
7 1 8 546.72 59.74
7 1 9 2.37 15.2
7 1 10 212.05 39.66
7 1 11 799.85 76.6
7 1 12 61.29 23.49
7 1 13 169.56 39.47
7 1 14 23.37 21.54
7 1 15 234.28 47.24
7 1 16 1.38 17.46
7 1 17 264.64 53.18
7 1 18 124.81 40.29
7 1 19 140.61 44.26
7 1 20 173.13 51.55
7 1 21 51.47 23.66
7 2 -22 37.28 28.27
7 2 -21 222.79 65.89
7 2 -20 33.32 33.76
7 2 -20 22.44 24
7 2 -19 105.71 48.53
7 2 -19 61.99 32.94
7 2 -18 121.72 46.09
7 2 -18 5.08 28.9
7 2 -17 35.69 26.62
7 2 -17 42.34 29.58
7 2 -16 491.84 78.93
7 2 -16 486.59 71.18
7 2 -15 88.55 39.07
7 2 -15 148.88 41.06
7 2 -14 417.69 66.61
7 2 -14 530.1 69.72
7 2 -13 46.37 29.43
7 2 -13 6.48 17.39
7 2 -12 732.18 78.29
7 2 -12 830.97 84.71
7 2 -11 976.39 71.18
7 2 -11 1107.08 92.25
7 2 -11 1088.27 94.53
7 2 -10 104.53 27.37
7 2 -10 116.92 32.52
7 2 -10 158.44 29.43
7 2 -9 1080.65 74.58
7 2 -9 1105.39 86.73
7 2 -8 290.5 43.22
7 2 -8 344.22 42.26
7 2 -8 302.5 30.08
7 2 -7 206.65 34.86
7 2 -7 250.91 35.98
7 2 -7 237.12 26.96
7 2 -6 17.5 13.58
7 2 -6 44.77 19.27
7 2 -6 11.22 9.9
7 2 -5 1422.26 67.41
7 2 -5 1490.81 82.95
7 2 -4 339.89 37.61
7 2 -3 368.91 37.61
7 2 -2 777.86 51.62
7 2 -2 836.84 63.63
7 2 -1 188.26 31.74
7 2 -1 157.37 22.94
7 2 0 237.78 25.38
7 2 0 228.55 33.33
7 2 1 168.25 28.55
7 2 2 371.94 42.98
7 2 3 90.8 26.15
7 2 4 894.35 69.38
7 2 5 1176.43 80.35
7 2 6 44.26 17.5
7 2 7 189.47 34.3
7 2 8 383.81 49.73
7 2 9 905.81 78.87
7 2 10 15.18 14.29
7 2 11 1739.18 112.86
7 2 12 490.89 61.57
7 2 13 25.39 18.07
7 2 14 760.92 80.39
7 2 15 26.29 21.17
7 2 16 403.8 61.79
7 2 17 11.47 27.01
7 2 18 102.26 37.28
7 2 19 36.39 24.52
7 2 20 29.26 26.93
7 2 21 172.43 48.98
7 3 -22 32.06 42.11
7 3 -21 8.08 34.6
7 3 -21 42.65 32.3
7 3 -20 12.56 27.55
7 3 -20 20.87 27.84
7 3 -19 290.41 68.62
7 3 -19 236.21 58.2
7 3 -18 200.44 61.56
7 3 -18 87.12 33.98
7 3 -17 129.57 49.52
7 3 -17 119.47 39.83
7 3 -16 -14.49 22.73
7 3 -16 3.58 24.94
7 3 -15 229.69 50.48
7 3 -15 233.44 54.67
7 3 -14 303 55.38
7 3 -14 266.69 54.27
7 3 -13 574.96 71.61
7 3 -13 641.12 81.17
7 3 -12 178.45 40.65
7 3 -12 105.61 34.12
7 3 -12 208.31 34.07
7 3 -11 548.62 52.36
7 3 -11 664.75 74.3
7 3 -10 972.09 70.65
7 3 -10 967.4 86.35
7 3 -9 231.49 40.29
7 3 -9 172.89 31.34
7 3 -8 1329.42 80.27
7 3 -8 1187.61 86.55
7 3 -7 136.35 29.77
7 3 -7 159.9 19.75
7 3 -6 1246.14 54.82
7 3 -6 1313.58 81.82
7 3 -5 312.22 28.66
7 3 -5 329.74 39.06
7 3 -4 428.13 41.07
7 3 -3 422.11 37.8
7 3 -2 45.58 14.02
7 3 -1 1017.47 49.76
7 3 -1 1085.07 78.17
7 3 0 285.13 40.67
7 3 0 192.51 18.96
7 3 1 900.17 70.65
7 3 2 208.88 36.91
7 3 3 156.22 33.62
7 3 4 701.99 63.49
7 3 5 40.72 23.87
7 3 6 1803.11 106.22
7 3 7 245.23 43.09
7 3 8 933.46 78.39
7 3 9 910 80.28
7 3 10 83.41 30.74
7 3 11 1187.81 95.93
7 3 12 -4.1 18.66
7 3 13 573.62 71.78
7 3 14 -4.97 17.67
7 3 15 465.56 65.55
7 3 16 53.95 30.4
7 3 17 42.14 22
7 3 18 337.13 58.86
7 3 19 66.64 24.72
7 3 20 147.85 48.68
7 3 21 -44.91 34.68
7 3 22 87.16 38.26
7 4 -21 70.64 43.36
7 4 -20 162.14 55.91
7 4 -20 161.7 49.47
7 4 -19 22.61 26.33
7 4 -19 73.22 33.03
7 4 -18 201.2 59.36
7 4 -18 183.67 47.8
7 4 -17 3.05 25.56
7 4 -17 32.14 31.1
7 4 -16 291.29 56.73
7 4 -16 324.67 64.7
7 4 -15 43.37 28.84
7 4 -15 81.82 36.24
7 4 -14 122.41 37.76
7 4 -14 93.78 33.05
7 4 -13 351.45 60.56
7 4 -12 -32.62 32.35
7 4 -12 -9.75 11.63
7 4 -11 255.46 48.42
7 4 -11 205.35 32.55
7 4 -10 90.69 30.67
7 4 -10 77.28 22.6
7 4 -9 335.27 40.21
7 4 -9 273.62 46.86
7 4 -8 72.52 25.56
7 4 -7 206.68 36.13
7 4 -6 209.46 31.49
7 4 -6 230.84 18.31
7 4 -5 37.09 8.65
7 4 -5 31.98 12.98
7 4 -4 216.01 28.69
7 4 -4 220.74 18.6
7 4 -3 283.64 30.09
7 4 -2 343.56 29.62
7 4 -1 26.75 20.28
7 4 -1 -5.81 6.62
7 4 0 28.47 16.31
7 4 0 34.83 6.7
7 4 1 94.5 25.94
7 4 2 84.79 26.02
7 4 3 322.46 45.17
7 4 4 214.18 37.18
7 4 5 245.1 41.97
7 4 6 63.96 24.34
7 4 7 34.22 18.44
7 4 8 253.06 42.13
7 4 9 84.95 24.8
7 4 10 417.93 56.71
7 4 11 65.05 23.56
7 4 12 238.91 47.03
7 4 13 -22.42 22.32
7 4 14 178.2 44.95
7 4 15 112.53 34.6
7 4 16 40.14 24
7 4 17 280.64 54.65
7 4 18 30.22 26.51
7 4 19 301.69 59
7 4 20 40.09 28
7 4 21 273.07 57.72
7 4 22 41.88 30.11
7 5 -21 109.8 53.01
7 5 -20 24.27 30.85
7 5 -19 70.27 38.7
7 5 -19 22.6 24.47
7 5 -18 -5.39 27.02
7 5 -17 53.08 32.6
7 5 -16 369.24 60.72
7 5 -15 172.3 42.58
7 5 -12 67.27 21.62
7 5 -11 21.54 15.9
7 5 -10 362.22 40.07
7 5 -5 250.41 24.69
7 5 -4 15.11 9.12
7 5 -3 353.73 34.32
7 5 -2 506.67 36.27
7 5 -1 236.97 21.23
7 5 0 1727.48 107.32
7 5 1 271.39 46.42
7 5 2 1185.88 89.02
7 5 3 38.81 26.1
7 5 4 604.56 64.69
7 5 5 174.58 35.53
7 5 6 51.93 24.57
7 5 7 275.79 46.57
7 5 8 15.18 17.83
7 5 9 875.35 83.06
7 5 10 51.93 25.8
7 5 11 620.19 70.58
7 5 12 194.09 45.46
7 5 13 -12.77 22.07
7 5 14 40.64 22.97
7 5 15 -19.7 25.55
7 5 16 321.37 58.6
7 5 17 79.83 31.95
7 5 18 271.64 55.17
7 5 19 31.82 23.67
7 5 20 23.67 25.87
7 5 21 134.48 40.52
7 5 22 21.12 28.6
7 6 -18 327.08 63.5
7 6 -17 307.1 60.54
7 6 -16 73.53 31.49
7 6 -5 54.08 15.78
7 6 -4 802.43 50.1
7 6 0 62.4 9.79
7 6 0 70.01 27.08
7 6 1 483.06 58.37
7 6 2 43.17 23.93
7 6 3 719.87 72.43
7 6 4 695.28 71.75
7 6 5 343.8 51.99
7 6 6 986.36 86.62
7 6 7 94.86 33.29
7 6 8 547.66 65.38
7 6 9 184.63 40.19
7 6 10 321 51.39
7 6 11 245.87 48.41
7 6 12 250.8 49.04
7 6 13 314.27 53.5
7 6 14 82.86 32.8
7 6 15 133.27 39.31
7 6 16 -33.04 25.17
7 6 16 -39.37 33.78
7 6 17 141.4 41.2
7 6 17 81.08 39.15
7 6 18 258.27 52.76
7 6 18 289.32 65.33
7 6 19 171.48 46.91
7 6 20 240.81 55.83
7 6 21 17.51 27.67
7 7 -17 -29.86 26.78
7 7 -5 51.5 17.93
7 7 -4 410.5 40.45
7 7 1 691.41 73.08
7 7 2 516.18 65.24
7 7 3 705.03 74.73
7 7 4 165.17 43.47
7 7 5 499.18 63.96
7 7 6 74.25 29.62
7 7 7 661.6 73.63
7 7 8 395.87 61.24
7 7 9 301.51 50.77
7 7 10 1005.43 93.75
7 7 11 102.71 34.4
7 7 12 132.94 38.5
7 7 13 2.83 17.31
7 7 14 157.3 43.3
7 7 15 -6.28 22.04
7 7 15 78.34 38.8
7 7 16 234.78 51.76
7 7 16 245.34 57.19
7 7 17 166.97 45.76
7 7 17 137.51 46.77
7 7 18 60.54 30.92
7 7 18 100.25 45.58
7 7 19 211.2 53.44
7 7 19 167.56 57.46
7 7 20 -12.86 22.55
7 7 21 62.95 28.03
7 8 -6 158.83 28.42
7 8 -5 893.42 64.81
7 8 -4 23.34 16.06
7 8 -3 895.4 64.41
7 8 1 71.02 28.32
7 8 2 443.3 60.14
7 8 3 74.74 33.79
7 8 4 973.32 90.95
7 8 5 184.27 46.55
7 8 6 707.17 78.35
7 8 7 325.94 55.34
7 8 8 187.75 43.89
7 8 9 407.35 63.91
7 8 10 69.61 32.07
7 8 11 517.13 70.59
7 8 12 111.01 35.69
7 8 13 384.22 62.79
7 8 14 146.7 47.25
7 8 14 126.74 42.6
7 8 15 67.16 33.39
7 8 15 2.65 27.89
7 8 16 172.58 52.21
7 8 16 129.6 45.14
7 8 17 -39.87 27.25
7 8 17 2.3 28
7 8 18 94.29 37.95
7 8 18 74.94 39.46
7 8 19 50.16 35.07
7 8 19 23.49 28.11
7 8 20 71.18 34
7 8 20 179.93 59.41
7 8 21 73.94 34.8
7 9 -6 498 52.64
7 9 -5 163.57 34
7 9 -4 389.79 47.91
7 9 -3 226.75 35.85
7 9 1 693.64 79.2
7 9 2 90.58 42.28
7 9 3 811.7 86.53
7 9 4 222.83 53.52
7 9 5 288.17 53.07
7 9 6 334.91 61.15
7 9 7 208.77 49.87
7 9 8 564.31 73.31
7 9 9 97.51 38.32
7 9 10 296.07 55.23
7 9 11 63 29.57
7 9 12 149.16 43.15
7 9 13 322.89 57.99
7 9 13 201.04 54.72
7 9 14 68.24 30.99
7 9 14 161.9 55.23
7 9 15 155.77 52.29
7 9 15 270.83 57.46
7 9 16 54.9 27.96
7 9 16 2.19 19.76
7 9 17 75 35.12
7 9 17 51.8 30.86
7 9 18 2.05 19.38
7 9 18 -33.62 34.78
7 9 19 89.01 37.26
7 9 19 38.56 36.12
7 9 20 136.38 45.22
7 9 20 101.19 49.19
7 9 21 51.59 34
7 10 -6 46.54 22.31
7 10 -5 125.43 30.25
7 10 -4 831.02 72.64
7 10 -3 69.27 28.44
7 10 -2 572.41 59.27
7 10 1 92.01 34.32
7 10 2 298.4 53.6
7 10 3 119.94 40.51
7 10 4 123.81 42.51
7 10 5 514.19 71.87
7 10 6 356.54 61.1
7 10 7 428.79 65.4
7 10 8 -1.64 23.37
7 10 9 386.21 65.51
7 10 10 267.43 60.06
7 10 11 119.82 36.89
7 10 12 96.22 34.94
7 10 13 38.17 29.75
7 10 13 48.75 40.27
7 10 14 256.93 52.8
7 10 14 199.33 60.35
7 10 15 -27.16 27.93
7 10 15 5.77 18.86
7 10 16 329.45 78.04
7 10 16 205.2 50.48
7 10 17 75.24 34.84
7 10 17 31.58 25.85
7 10 18 40.93 28.53
7 10 18 24 32.49
7 10 19 83.13 38.45
7 10 19 49.81 34.83
7 10 20 -34.23 25.26
7 10 20 -14 30.91
7 10 21 125.68 56.86
7 11 -6 85.78 27.8
7 11 -5 359.31 51.55
7 11 -4 42.02 24.16
7 11 -3 244.36 41.9
7 11 -2 69.88 30.04
7 11 1 679.11 85.19
7 11 2 759.21 90.54
7 11 3 120.71 42.81
7 11 4 758.84 88.96
7 11 5 215 52.26
7 11 6 198.09 48.24
7 11 7 73.65 35.27
7 11 8 400.14 64.72
7 11 9 128.4 41.99
7 11 10 83.71 38.31
7 11 11 242.7 57.98
7 11 12 7.12 19.73
7 11 13 256.75 55.6
7 11 14 22.2 24.16
7 11 14 -15.86 24.87
7 11 15 189.32 47.59
7 11 15 244.27 67.57
7 11 16 96.36 45.67
7 11 16 28.97 23.81
7 11 17 -2.59 28.24
7 11 17 69.8 35.62
7 11 18 122.69 46.73
7 11 18 117.84 57.7
7 11 19 -28.24 27.77
7 11 19 -33.92 36.02
7 11 20 21.69 30.08
7 12 -6 243.8 44.97
7 12 -5 51.81 24.11
7 12 -4 410.31 59.13
7 12 -3 50.41 28.01
7 12 -2 184.6 43.04
7 12 -1 249.51 46.34
7 12 1 346.53 65.76
7 12 2 145.26 45.92
7 12 3 579.96 79.69
7 12 4 129.48 48.68
7 12 5 239.55 55.18
7 12 6 230.25 52.25
7 12 7 185.14 49.25
7 12 8 522.71 79.85
7 12 9 82.38 37.35
7 12 10 120.67 46.01
7 12 11 21.46 28.99
7 12 12 64.93 28
7 12 13 6.14 19.84
7 12 14 158.72 44.01
7 12 14 53.59 37.11
7 12 15 83.57 35.33
7 12 15 5.17 29.53
7 12 16 62.91 46.28
7 12 16 97.72 44.78
7 12 17 78.82 35.95
7 12 17 50.23 29.61
7 12 18 41.58 34.83
7 13 -5 122.62 34.32
7 13 -4 138.26 36.86
7 13 -3 255.32 51.22
7 13 -2 359.74 58.64
7 13 -1 222.08 50.09
7 13 0 395.2 60.52
7 13 1 96.26 44.43
7 13 2 236 58.93
7 13 3 202.61 55.74
7 13 4 240.42 56.61
7 13 5 383.72 71.22
7 13 6 262.94 58.66
7 13 7 420.65 73.31
7 13 8 58.95 36.05
7 13 9 128.18 42.07
7 13 10 192.07 55.76
7 13 11 62.89 35.21
7 13 12 144.23 41.89
7 13 13 77.33 38.02
7 13 14 157.84 47.24
7 13 15 32.61 30.48
7 13 16 129.33 47.56
7 14 -5 146.5 40.41
7 14 -4 138.75 37.98
7 14 -3 290.78 54.39
7 14 -2 42.59 23.75
7 14 -1 168.62 41.64
7 14 0 112.67 38.03
7 14 0 58.51 24.71
7 14 1 204.5 52.48
7 14 1 199.04 47.22
7 14 2 79.73 35.16
7 14 3 104 39.31
7 14 4 160.9 50.8
7 14 5 94.13 40.68
7 14 6 217.41 57.85
7 14 7 90.42 31.96
7 14 8 333.47 67.26
7 14 9 156.85 51.32
7 14 10 252.99 66.72
7 14 11 317.32 67.22
7 14 12 105.23 45.24
7 14 13 359.35 71.01
7 14 14 3.38 23.28
7 15 -5 165.72 46.53
7 15 -4 330.86 62.27
7 15 -3 104.74 41.08
7 15 -2 256.47 54.86
7 15 -1 84.51 34.12
7 15 0 215.83 53.59
7 15 0 192.17 51.33
7 15 1 135.3 45.53
7 15 1 95.23 45.06
7 15 2 128.03 47.83
7 15 2 109.37 40.41
7 15 3 245.28 58.97
7 15 4 174.46 57.57
7 15 5 273.91 65.2
7 15 6 188.48 54.43
7 15 7 284.3 65.17
7 15 8 253.8 60.36
7 15 9 226.48 59.17
7 15 10 216.96 55.57
7 15 11 72.61 40.54
7 15 12 82.32 33.94
7 16 -2 120.04 43.73
7 16 -1 156.42 48.28
7 16 0 192.05 53.62
8 -11 -7 182.05 50.46
8 -11 -6 44.13 33.45
8 -11 -5 89.82 41.87
8 -11 -4 169.04 49.18
8 -11 -3 59.53 38.11
8 -11 -2 240.6 58.82
8 -11 -1 108.07 45.46
8 -11 0 206.85 54.03
8 -11 1 59.16 34.02
8 -11 2 127.24 42.51
8 -11 3 92.99 40.28
8 -11 4 84 40.22
8 -10 -11 -11.37 35.22
8 -10 -10 137.62 51.31
8 -10 -9 13.34 22.24
8 -10 -9 25.06 31.42
8 -10 -8 147.78 47.54
8 -10 -8 132.71 46.41
8 -10 -7 90.38 38.6
8 -10 -6 167.35 44.31
8 -10 -5 108.56 41.01
8 -10 -4 134.69 45.75
8 -10 -3 263.6 57.7
8 -10 -2 49.91 31.31
8 -10 -1 280.17 57.71
8 -10 0 109.34 38.33
8 -10 1 191.59 48.77
8 -10 2 126.2 44.72
8 -10 3 93.32 42.3
8 -10 4 96.57 41.23
8 -10 5 -14.08 21.82
8 -10 6 93.6 35.76
8 -10 7 -1.55 26.52
8 -10 8 58.34 32.02
8 -10 10 80.05 38.68
8 -10 11 100.35 46.48
8 -9 -14 10.82 23.21
8 -9 -13 238.56 67.18
8 -9 -12 -18.44 38.89
8 -9 -11 240.46 67.07
8 -9 -10 24.85 25.26
8 -9 -9 342.52 66.76
8 -9 -9 241.6 65.35
8 -9 -8 88.01 35.47
8 -9 -8 151.51 52.18
8 -9 -7 361.27 67.98
8 -9 -7 450.17 83.93
8 -9 -6 167.08 47.93
8 -9 -5 48.45 30.37
8 -9 -4 499.85 76.87
8 -9 -3 156.83 49.67
8 -9 -2 693.09 90.1
8 -9 -1 147.8 46.34
8 -9 0 336.97 62.15
8 -9 1 232.62 52.53
8 -9 2 72.83 34.43
8 -9 3 513.56 79.34
8 -9 4 66.08 31.97
8 -9 5 261.51 58.68
8 -9 6 38.42 27.13
8 -9 7 78.1 32.61
8 -9 7 54.83 28.26
8 -9 8 29.19 25.07
8 -9 8 44.51 27.94
8 -9 9 34.75 21.88
8 -9 9 44.64 24.71
8 -9 10 105.81 40.3
8 -9 10 106.4 42.85
8 -9 11 19.68 29.72
8 -9 11 42.56 28.69
8 -9 12 71.4 37.18
8 -8 -16 34.42 27.49
8 -8 -15 105.65 47.99
8 -8 -14 264.54 65.9
8 -8 -13 45.12 38.14
8 -8 -12 383.94 79.03
8 -8 -11 -20.57 28.88
8 -8 -10 203.82 50.13
8 -8 -10 225.94 61.22
8 -8 -9 148.15 44.3
8 -8 -9 222.9 62.98
8 -8 -8 48.12 27.3
8 -8 -8 163.32 56.27
8 -8 -7 359.25 65.66
8 -8 -7 410.71 76.57
8 -8 -6 59.77 34.34
8 -8 -6 80 50.32
8 -8 -5 843.04 96.03
8 -8 -4 162.18 50.1
8 -8 -3 728.27 88.3
8 -8 -2 230.17 52.23
8 -8 -1 173.36 44.58
8 -8 0 1054.15 104.06
8 -8 1 144.1 40
8 -8 2 552.17 76.59
8 -8 3 54.44 30.34
8 -8 4 365.57 64.12
8 -8 4 308.49 46.7
8 -8 5 154.73 45.96
8 -8 5 133.85 35.02
8 -8 6 85.85 34.18
8 -8 6 99.59 30.58
8 -8 7 379.14 67.38
8 -8 7 331.06 56.38
8 -8 8 -24.5 28.84
8 -8 8 -5.3 24.57
8 -8 9 238.19 45.77
8 -8 10 4.51 22.36
8 -8 11 133.28 42.32
8 -8 12 91.28 39.28
8 -8 13 43.11 37.47
8 -8 14 143.22 39.58
8 -7 -17 69.33 34.2
8 -7 -16 -18.29 30.64
8 -7 -15 258.33 63.34
8 -7 -14 -9.51 25.51
8 -7 -13 270.18 62.05
8 -7 -12 116.12 44.27
8 -7 -11 125.44 43.19
8 -7 -10 323.75 61.05
8 -7 -10 251.29 59.61
8 -7 -9 83.53 34.84
8 -7 -9 57.12 41.58
8 -7 -8 436.27 68.98
8 -7 -8 355.75 67.9
8 -7 -7 24.34 20.7
8 -7 -7 -15.32 24.65
8 -7 -6 410.93 65.92
8 -7 -6 370.19 69.54
8 -7 -5 78.32 33.78
8 -7 -5 80.86 38.53
8 -7 -4 105.43 32.68
8 -7 -3 93.9 34.89
8 -7 -2 8.95 21.14
8 -7 -1 11.49 18.9
8 -7 0 3.23 19.09
8 -7 1 201.52 47.9
8 -7 1 141 26.86
8 -7 2 82.3 36.72
8 -7 2 82.78 26.04
8 -7 3 363.89 62.41
8 -7 3 310.53 45.6
8 -7 4 241.8 52.26
8 -7 4 241.02 41.25
8 -7 5 95.1 36.55
8 -7 5 118.43 32.52
8 -7 6 293.38 48.79
8 -7 7 -5.11 16.3
8 -7 8 144.8 43.32
8 -7 9 48.51 23.92
8 -7 10 181.52 42.74
8 -7 11 222.12 49.99
8 -7 12 18.43 25.75
8 -7 13 140.63 44.93
8 -7 14 12.76 25.87
8 -7 15 93.19 40.08
8 -6 -18 80.76 41.09
8 -6 -17 11.65 25.29
8 -6 -16 99.02 43.41
8 -6 -15 15.15 22.07
8 -6 -14 190.35 53.47
8 -6 -13 136.41 46.73
8 -6 -12 233.67 58.37
8 -6 -11 271.93 62.52
8 -6 -10 79.6 26.47
8 -6 -10 82.28 38.06
8 -6 -9 682.05 81.58
8 -6 -9 663.84 89.27
8 -6 -8 115.57 38.34
8 -6 -8 77.99 38.56
8 -6 -7 735.57 86.14
8 -6 -7 893.6 104.32
8 -6 -6 1036.29 100
8 -6 -6 1123.19 116.35
8 -6 -5 734 85.81
8 -6 -5 727.82 94.34
8 -6 -4 912.1 91.28
8 -6 -4 995.88 106.43
8 -6 -3 190.04 47.61
8 -6 -2 1539.52 118.19
8 -6 -1 197.51 49.61
8 -6 -1 87.2 21.24
8 -6 0 673.5 79.26
8 -6 0 604.27 51.55
8 -6 1 245.87 47.34
8 -6 1 197.76 32.46
8 -6 2 725.73 85.31
8 -6 2 631.94 59.66
8 -6 3 1105.81 102.71
8 -6 3 912.14 74.53
8 -6 4 131.12 31.85
8 -6 4 178.38 40.53
8 -6 5 660.58 70.2
8 -6 5 564.12 63.84
8 -6 6 53.35 20.97
8 -6 6 63.63 26.09
8 -6 7 385.8 53.96
8 -6 7 404.02 58.74
8 -6 8 277.16 46.58
8 -6 8 210.17 45.79
8 -6 9 155.75 38.59
8 -6 9 146.39 38.41
8 -6 10 236.87 43.73
8 -6 10 240.14 50.35
8 -6 11 17.71 20.4
8 -6 12 112.13 35.91
8 -6 13 37.8 28.5
8 -6 14 84.23 29.51
8 -6 15 31.58 28.65
8 -6 16 79.06 39.63
8 -5 -19 216.94 65.05
8 -5 -18 4.64 28.32
8 -5 -17 125.7 44.3
8 -5 -16 6.5 20.01
8 -5 -15 178.93 48.24
8 -5 -14 165.04 47.49
8 -5 -13 -11.41 22.09
8 -5 -12 322.31 59.49
8 -5 -11 23.17 25.58
8 -5 -10 562.64 72.88
8 -5 -10 545.75 78.21
8 -5 -9 335.9 57.67
8 -5 -9 295.94 60.57
8 -5 -8 211.9 43.59
8 -5 -8 297.48 58.19
8 -5 -7 976.21 92.74
8 -5 -7 941.19 101.26
8 -5 -6 79.94 32.14
8 -5 -6 113.87 42.07
8 -5 -5 1695.07 118.88
8 -5 -5 1607.64 129.7
8 -5 -4 71.27 31.27
8 -5 -4 139.16 47.57
8 -5 -3 788.12 78.54
8 -5 -3 955.71 96.93
8 -5 -2 48.98 30.54
8 -5 -1 89.49 28.06
8 -5 -1 117.22 33.62
8 -5 0 749.81 75.04
8 -5 0 692.31 75.86
8 -5 1 227.99 42.73
8 -5 1 262.97 52.84
8 -5 2 1210.19 93.81
8 -5 3 303.41 50.24
8 -5 3 267.56 35.27
8 -5 4 650.84 69.26
8 -5 4 603.03 54.15
8 -5 5 30.26 22.52
8 -5 5 21.11 20.67
8 -5 6 633.96 67.49
8 -5 6 580.32 59.42
8 -5 7 232.42 43.45
8 -5 7 159.46 34.2
8 -5 8 13.63 15.42
8 -5 8 41.27 18.04
8 -5 9 338.58 48.94
8 -5 9 249.92 45.62
8 -5 10 23.29 21.95
8 -5 11 243.48 42.98
8 -5 11 179.45 42.74
8 -5 12 94.83 36.04
8 -5 13 109.47 33.36
8 -5 14 68.66 29.31
8 -5 15 6.13 23.65
8 -5 16 86.58 29.91
8 -5 17 51.05 34.3
8 -4 -20 116.9 54.69
8 -4 -19 49.71 27.7
8 -4 -18 113.47 41.65
8 -4 -17 52.63 32.06
8 -4 -16 28.7 27.29
8 -4 -15 366.48 69.66
8 -4 -14 30.45 27.77
8 -4 -13 101.13 37.43
8 -4 -12 -26.79 26.99
8 -4 -11 275.91 54.85
8 -4 -10 0.08 15.35
8 -4 -10 6.55 21.13
8 -4 -9 737.29 79.38
8 -4 -9 843.88 93.67
8 -4 -8 1110.17 94.53
8 -4 -8 1125.93 107.26
8 -4 -7 309 51.69
8 -4 -7 297.93 57.35
8 -4 -6 322.45 54.16
8 -4 -6 295.1 55.06
8 -4 -5 48.19 25.02
8 -4 -5 38.63 25.84
8 -4 -4 261.73 47.56
8 -4 -4 333.95 61.4
8 -4 -3 409.99 56.99
8 -4 -3 374.75 54.6
8 -4 -3 378.66 62.23
8 -4 -2 507.68 61.46
8 -4 -2 558.22 65.97
8 -4 -2 492.94 32.32
8 -4 -2 508.09 67.88
8 -4 -1 530.84 62.29
8 -4 -1 472.72 60.57
8 -4 -1 458.83 35.01
8 -4 0 77.57 19.25
8 -4 0 91.93 31.66
8 -4 0 70.36 27
8 -4 1 539.24 61.12
8 -4 1 493.76 42.69
8 -4 2 13.75 12.58
8 -4 2 -5.47 18.21
8 -4 3 65.36 20.24
8 -4 3 40.15 18.55
8 -4 4 535.5 60.39
8 -4 4 448.28 48.73
8 -4 5 451.84 56.86
8 -4 5 422.89 49.39
8 -4 6 1325.96 94.8
8 -4 6 1162.29 82.94
8 -4 7 29.21 21.08
8 -4 7 8.06 14.85
8 -4 8 600.67 64.15
8 -4 8 564.25 62.18
8 -4 9 265.25 44.94
8 -4 9 240.09 43.36
8 -4 10 106.67 30.31
8 -4 10 84.21 31.39
8 -4 11 162.11 34.13
8 -4 11 144.94 33.74
8 -4 12 129.65 33.79
8 -4 12 177.62 39.82
8 -4 13 54.59 32.56
8 -4 14 -1.73 18.61
8 -4 15 122.8 37.2
8 -4 15 198.92 45.73
8 -4 16 -8.59 34.12
8 -4 17 264.89 57.81
8 -3 -20 -4.88 22.78
8 -3 -19 50.12 30.86
8 -3 -18 209.63 58.77
8 -3 -17 -4.23 26.55
8 -3 -16 194.71 50.68
8 -3 -15 -0.47 21.1
8 -3 -14 265.94 56.81
8 -3 -13 112.92 35.81
8 -3 -12 175.18 45.48
8 -3 -11 260.63 53.72
8 -3 -10 420.4 57.33
8 -3 -10 366.34 64.41
8 -3 -9 82.8 25.26
8 -3 -9 60.63 32.87
8 -3 -9 70.16 31.4
8 -3 -8 40.11 18.67
8 -3 -8 8.32 24.1
8 -3 -8 14.12 17.96
8 -3 -7 650.8 69.33
8 -3 -7 647.43 77.39
8 -3 -7 660.52 77.67
8 -3 -6 128.43 17.71
8 -3 -6 120.63 33.65
8 -3 -6 114.31 30.39
8 -3 -6 80.46 27.83
8 -3 -6 155.38 41.05
8 -3 -5 821.75 77.73
8 -3 -5 892.95 78.31
8 -3 -5 947.6 90.34
8 -3 -5 876.83 84.99
8 -3 -5 932.65 42.15
8 -3 -4 86.75 30.33
8 -3 -4 81.02 17.33
8 -3 -4 79.95 28.68
8 -3 -4 42.13 22.85
8 -3 -4 64.72 27.18
8 -3 -3 146.16 31.44
8 -3 -3 169.69 20.87
8 -3 -3 142 30.34
8 -3 -3 155.97 39.72
8 -3 -3 179.96 40
8 -3 -2 161.3 37.07
8 -3 -2 191.89 22.98
8 -3 -2 174.08 36.4
8 -3 -2 196.57 40.51
8 -3 -2 136.33 37.85
8 -3 -1 12.27 14.18
8 -3 -1 1.29 9.55
8 -3 -1 -10.54 17.7
8 -3 -1 9.27 16.08
8 -3 0 217.18 39.67
8 -3 0 203.62 26.98
8 -3 0 185.95 39.8
8 -3 1 131.58 31.92
8 -3 1 152.46 24.28
8 -3 1 165.29 34.9
8 -3 2 193.43 28.52
8 -3 2 119.83 30.77
8 -3 2 105.15 26.69
8 -3 3 1159.45 87.42
8 -3 3 1078.3 70.25
8 -3 3 1122.96 81.72
8 -3 4 347.37 48.94
8 -3 4 424.37 46.89
8 -3 4 386.34 47.33
8 -3 5 443.45 55.18
8 -3 5 346.72 45.4
8 -3 5 434.16 47.66
8 -3 6 1.92 13.2
8 -3 6 -2.05 17.81
8 -3 7 212.62 36.77
8 -3 7 191.93 36.03
8 -3 8 233.35 41.32
8 -3 8 318.71 45.98
8 -3 9 342.7 49.27
8 -3 9 176.37 35.82
8 -3 10 137.09 33.94
8 -3 10 128.28 31.2
8 -3 11 78.57 23.15
8 -3 11 141.37 37.59
8 -3 12 304.5 50.96
8 -3 13 23.75 18.91
8 -3 14 240.85 50.33
8 -3 15 29.77 25.91
8 -3 16 228.13 50.43
8 -3 17 35.49 21.2
8 -3 18 34.59 27.98
8 -3 18 71.08 40.31
8 -2 -21 126.31 47.21
8 -2 -20 143.2 52.15
8 -2 -19 154.41 49.29
8 -2 -18 -29.73 25.49
8 -2 -17 232.22 52.15
8 -2 -16 23.63 25.34
8 -2 -15 287.11 59.13
8 -2 -14 102.29 34.73
8 -2 -13 211.87 48.69
8 -2 -13 291.3 59.1
8 -2 -12 101.41 39.78
8 -2 -12 134.83 41.49
8 -2 -11 -15.3 18.87
8 -2 -11 5.04 23.16
8 -2 -10 692.88 69.39
8 -2 -10 659.57 77.8
8 -2 -10 585.67 76.53
8 -2 -9 40.62 23.58
8 -2 -9 24.62 20.1
8 -2 -9 25.18 28.51
8 -2 -8 655.79 43.73
8 -2 -8 687.1 68.11
8 -2 -8 743.51 79.97
8 -2 -8 662.44 77.33
8 -2 -7 65.6 24.82
8 -2 -7 76.62 25.9
8 -2 -7 73.4 16.22
8 -2 -7 43.36 23.49
8 -2 -7 66.4 30.56
8 -2 -6 12.93 11.16
8 -2 -6 35.57 18.76
8 -2 -6 10.96 15.42
8 -2 -6 12.71 21.73
8 -2 -6 21.75 16.73
8 -2 -5 1225.89 92.78
8 -2 -5 1327.48 92.03
8 -2 -5 1294.71 59.43
8 -2 -5 1435.17 106.35
8 -2 -5 1358 102.08
8 -2 -4 66.86 27.78
8 -2 -4 99.76 23.05
8 -2 -4 78.74 26.31
8 -2 -4 86.01 31.15
8 -2 -4 57.71 30.11
8 -2 -3 938.48 78.11
8 -2 -3 1019.31 53.78
8 -2 -3 999.72 80.97
8 -2 -3 868.75 80.97
8 -2 -3 833.28 78.73
8 -2 -2 182.79 26.64
8 -2 -2 119.65 30.36
8 -2 -2 121.89 29.36
8 -2 -2 100.55 33.87
8 -2 -2 143.97 36.18
8 -2 -1 976.31 56.84
8 -2 -1 804.97 72.92
8 -2 -1 926.42 80.14
8 -2 -1 800.56 70.84
8 -2 0 211.56 38.36
8 -2 0 196.42 28.13
8 -2 0 169.19 37.48
8 -2 1 490.1 56.25
8 -2 1 420.9 53.82
8 -2 1 522.11 45.73
8 -2 2 825.71 70.17
8 -2 2 631.23 52.94
8 -2 2 707.03 63.76
8 -2 3 357.3 48.71
8 -2 3 489.01 48.83
8 -2 3 356.92 44.59
8 -2 4 289.81 43.58
8 -2 4 239.14 35.61
8 -2 4 320.47 41.52
8 -2 5 21.35 17.68
8 -2 5 19.94 16.12
8 -2 6 706.22 64.69
8 -2 6 583.53 53.64
8 -2 7 383.23 49.72
8 -2 7 470.93 46.79
8 -2 8 442.62 55.35
8 -2 8 351.63 39.23
8 -2 9 201.11 39.01
8 -2 10 13.83 14.26
8 -2 11 332.59 52.94
8 -2 12 -13.81 21.45
8 -2 13 352.24 57.86
8 -2 14 55.18 20.18
8 -2 15 121.05 38.3
8 -2 16 129.04 37.93
8 -2 17 -1.76 20.81
8 -2 18 276.9 60.05
8 -2 19 65.74 28.91
8 -1 -21 24.53 25.22
8 -1 -20 229.25 71.03
8 -1 -19 32.16 33.57
8 -1 -18 78.07 40.39
8 -1 -17 -13.32 25.81
8 -1 -16 190.53 52.02
8 -1 -15 115.77 37.25
8 -1 -15 122.58 43.05
8 -1 -14 21.32 31.16
8 -1 -14 -18.93 26.08
8 -1 -13 820.92 94.7
8 -1 -13 839.54 92.97
8 -1 -12 100.34 36.16
8 -1 -12 32.38 26.38
8 -1 -11 240.85 47.95
8 -1 -11 264.02 52.56
8 -1 -10 -18.65 19.03
8 -1 -10 13.54 14.83
8 -1 -10 -12.31 21.95
8 -1 -9 241.02 44.81
8 -1 -9 190.83 39.68
8 -1 -9 226.62 36.89
8 -1 -9 203.92 45.61
8 -1 -8 1414.24 99.95
8 -1 -8 1455.31 92.05
8 -1 -8 1316.95 101.32
8 -1 -8 1369.9 109.11
8 -1 -7 551.44 61.67
8 -1 -7 642.08 60.11
8 -1 -7 610.43 47.66
8 -1 -7 688.77 72.77
8 -1 -7 558.58 69.4
8 -1 -6 1648.73 104.85
8 -1 -6 1583 76.01
8 -1 -6 1714.34 99.2
8 -1 -6 1624.5 109.9
8 -1 -6 1575.72 109.99
8 -1 -5 13.25 21.48
8 -1 -5 63.23 27.38
8 -1 -5 90.58 27.24
8 -1 -5 49.88 18.55
8 -1 -5 47.17 20.08
8 -1 -4 1341.23 92.23
8 -1 -4 1362.98 88.97
8 -1 -4 1268.47 93.7
8 -1 -4 1364.02 68.34
8 -1 -4 1364.3 97.7
8 -1 -3 57.97 23.69
8 -1 -3 53.91 22.39
8 -1 -3 57.97 17.11
8 -1 -3 15.44 14.37
8 -1 -3 6.61 15.42
8 -1 -2 1305.46 87.98
8 -1 -2 1380.51 69.14
8 -1 -2 1307.42 91.33
8 -1 -2 1123.41 84.67
8 -1 -1 1095.07 79.69
8 -1 -1 996.67 60.48
8 -1 -1 941.88 76.82
8 -1 -1 1010.27 78.25
8 -1 0 744.93 66.71
8 -1 0 855.48 57.49
8 -1 0 605.05 58.26
8 -1 1 1267.46 70.99
8 -1 1 1264.81 81.86
8 -1 2 84.03 26.01
8 -1 2 72.25 23.4
8 -1 3 1140.55 73.51
8 -1 3 1101.94 73.14
8 -1 4 227.97 32.61
8 -1 4 133.2 28.99
8 -1 5 1383.83 86.81
8 -1 5 1044.47 67.99
8 -1 6 700.32 64.61
8 -1 6 984.38 63.71
8 -1 7 954.53 78
8 -1 7 884.22 59.29
8 -1 8 217.11 29.62
8 -1 8 172.19 35.05
8 -1 9 80.23 19.73
8 -1 9 61.42 23.14
8 -1 10 323.31 48.77
8 -1 11 37.79 17.05
8 -1 12 650.9 73.02
8 -1 13 212.34 41.99
8 -1 14 105.64 34.34
8 -1 15 245.95 50.98
8 -1 16 41.84 27
8 -1 17 107.95 34.48
8 -1 18 3.52 27.99
8 -1 19 147.27 42.87
8 -1 20 26.61 27.91
8 0 -21 145.05 55.17
8 0 -20 -35.17 33.42
8 0 -19 146.23 47.28
8 0 -18 -28.42 24.47
8 0 -17 157.86 47.93
8 0 -17 187.33 49.79
8 0 -16 380.24 68.4
8 0 -16 323.29 67.3
8 0 -15 59.22 30
8 0 -15 29.74 31.33
8 0 -14 393.09 66.24
8 0 -14 446.92 69.66
8 0 -13 30.42 26.06
8 0 -13 42.98 28.03
8 0 -12 364.16 58.53
8 0 -12 405.93 63.78
8 0 -11 155.63 40.73
8 0 -11 87.88 33.13
8 0 -10 1163.19 89.71
8 0 -10 1055.16 98.11
8 0 -10 1229.02 99.67
8 0 -9 86.69 39.43
8 0 -9 17.5 16.96
8 0 -9 94.85 28.07
8 0 -9 48.22 18.43
8 0 -8 157.16 36.97
8 0 -8 196.38 41.22
8 0 -8 170.19 35.42
8 0 -8 216.59 34.59
8 0 -7 774.68 71.63
8 0 -7 663.33 58.86
8 0 -7 622.02 66.49
8 0 -7 674.28 73.19
8 0 -6 66.91 24.85
8 0 -6 49.77 24.48
8 0 -6 27.8 18.4
8 0 -6 56.33 21.1
8 0 -5 554.73 59.33
8 0 -5 568.8 53.6
8 0 -5 563.66 49.58
8 0 -5 528.16 57.63
8 0 -5 546.89 61.15
8 0 -4 211.68 38.63
8 0 -4 156.95 27.61
8 0 -4 215.86 39.7
8 0 -4 145.87 26.36
8 0 -4 134.66 30.94
8 0 -3 112.24 28.53
8 0 -3 93.44 23.71
8 0 -3 90.06 21.35
8 0 -3 87.62 24.28
8 0 -2 198.75 29.05
8 0 -2 213.42 37.13
8 0 -2 172.87 17.66
8 0 -2 224.43 36.29
8 0 -1 30.66 14.74
8 0 -1 8.88 11.76
8 0 0 312.73 37.6
8 0 1 30.13 16.13
8 0 2 184.5 28.56
8 0 3 57.34 17.97
8 0 4 247.22 36.03
8 0 5 324.63 43.25
8 0 6 123.54 30.25
8 0 7 551.83 59.47
8 0 8 482.65 56.35
8 0 9 945.48 82.07
8 0 10 486.95 58.83
8 0 11 313.61 50.49
8 0 12 225.88 45.18
8 0 13 98.38 32.32
8 0 14 470.81 64.33
8 0 15 2.11 18.85
8 0 16 265.45 55.56
8 0 17 122.53 40.32
8 0 18 125 37.98
8 0 19 193.37 47.87
8 0 20 64.73 31.48
8 1 -21 91.63 45.41
8 1 -20 58.07 38.66
8 1 -19 98.99 39.51
8 1 -19 179.21 50.28
8 1 -18 53.92 34.33
8 1 -18 63.25 34.19
8 1 -17 180.14 48.38
8 1 -17 255.72 61.7
8 1 -16 2.3 20.57
8 1 -16 -39.23 28.16
8 1 -15 687.92 89.04
8 1 -15 519.16 77.05
8 1 -14 13.38 19.95
8 1 -14 20.73 25.9
8 1 -13 1141.26 107.5
8 1 -13 1237.46 110.51
8 1 -12 -3.88 22.88
8 1 -12 -13.42 23.03
8 1 -11 328.07 58.98
8 1 -11 325.77 54.96
8 1 -11 305.97 43.98
8 1 -10 1675.63 104.68
8 1 -10 1759.61 122.97
8 1 -10 1854.1 121.5
8 1 -9 47.57 24.97
8 1 -9 43.29 30.39
8 1 -9 26.34 17.21
8 1 -9 49.16 16.74
8 1 -8 1374.45 92.81
8 1 -8 1394.65 79.04
8 1 -8 1395.2 98.67
8 1 -8 1475.43 107.77
8 1 -7 -3.26 18.66
8 1 -7 11.48 12.75
8 1 -6 1063.32 79.41
8 1 -6 1043.79 67.36
8 1 -6 1096.92 82.32
8 1 -5 211.61 37.56
8 1 -5 140.83 25.51
8 1 -5 155.78 30.01
8 1 -4 308.31 44.44
8 1 -4 343.08 40.41
8 1 -4 343.1 43.27
8 1 -4 346.28 44.21
8 1 -3 998.28 70.21
8 1 -3 884.18 67.48
8 1 -2 179.79 29.04
8 1 -2 178.11 32.31
8 1 -1 399.69 42.36
8 1 -1 462.12 47.61
8 1 0 168.4 31.14
8 1 1 787.53 62.96
8 1 2 472.98 48.78
8 1 3 283.42 40.08
8 1 4 854.63 69.02
8 1 5 27.72 16.71
8 1 6 900.59 73.95
8 1 7 40.45 21.92
8 1 8 1310.53 95.54
8 1 9 167.76 37.85
8 1 10 512.76 62.03
8 1 11 622.99 70.68
8 1 12 63.06 29.05
8 1 13 1377.8 108.95
8 1 14 4.42 18.02
8 1 15 255.52 46.1
8 1 16 121.17 36.59
8 1 17 58.7 25.88
8 1 18 174.43 43.98
8 1 19 43.5 27.94
8 1 20 28.38 29.51
8 2 -21 162.53 57.44
8 2 -20 231.04 66.5
8 2 -20 191.49 54.94
8 2 -19 9.11 23.75
8 2 -19 30.37 33.12
8 2 -18 311.72 71.53
8 2 -18 264.58 58.51
8 2 -17 25.91 30.35
8 2 -17 -32.38 31.74
8 2 -16 124.98 43.44
8 2 -16 259.47 59.44
8 2 -15 57.22 27.24
8 2 -15 24.37 23.64
8 2 -14 45.27 27.42
8 2 -14 4.29 22.09
8 2 -13 571.38 77.37
8 2 -13 643.2 80.18
8 2 -12 53.06 28.29
8 2 -12 56.07 27.07
8 2 -11 691.98 67.03
8 2 -11 895.41 87.3
8 2 -11 677.77 77.18
8 2 -10 32.47 21.73
8 2 -10 66.1 28.07
8 2 -10 12.2 14.25
8 2 -9 377.72 53.13
8 2 -9 361.77 47.09
8 2 -8 165.52 35.34
8 2 -8 182.3 35.63
8 2 -8 194.33 27.55
8 2 -7 394.89 47.89
8 2 -7 436.59 39.43
8 2 -7 437.63 51.48
8 2 -6 800.82 68.44
8 2 -6 756.81 53.19
8 2 -6 727.86 64.1
8 2 -5 229.66 34.99
8 2 -5 258.93 31.93
8 2 -4 314.3 39.87
8 2 -3 112.74 29.17
8 2 -3 56.24 16.29
8 2 -2 734.36 64.13
8 2 -2 741.64 55.64
8 2 -1 686.36 62.6
8 2 -1 456.2 41.42
8 2 0 1703.37 97.32
8 2 1 909.17 70.08
8 2 2 305.53 42.22
8 2 3 453.88 51.92
8 2 4 34.53 18.48
8 2 5 516.58 56.05
8 2 6 218.82 38.61
8 2 7 583.3 62.32
8 2 8 676 68.11
8 2 9 11.16 19.07
8 2 10 891.26 83.9
8 2 11 64.63 26.48
8 2 12 416.03 60.94
8 2 13 87.45 30.31
8 2 14 68.58 27.01
8 2 15 120.61 37.16
8 2 16 17.75 22.47
8 2 17 335.41 59.82
8 2 18 91.01 36.15
8 2 19 275.27 59.68
8 2 20 3.5 22.39
8 3 -21 164.25 58.74
8 3 -21 148.1 49.57
8 3 -20 23.67 28.71
8 3 -20 -26.12 31.1
8 3 -19 185.02 58.11
8 3 -19 159.99 47.88
8 3 -18 64.99 29.83
8 3 -18 64.99 43.84
8 3 -17 69.78 46.13
8 3 -17 149.72 46.91
8 3 -16 565.5 87.68
8 3 -16 588.7 82.77
8 3 -15 258.94 55.11
8 3 -15 222.78 54.99
8 3 -14 95.11 34.67
8 3 -14 84.98 35.93
8 3 -13 25.66 30.1
8 3 -13 26.74 27.51
8 3 -12 28.83 29
8 3 -12 -1.45 18.94
8 3 -12 -17.17 16.47
8 3 -11 35.62 21.52
8 3 -11 58.41 20.28
8 3 -10 22.24 22.44
8 3 -10 27.29 18.74
8 3 -9 289.98 48.39
8 3 -9 304.97 44.9
8 3 -8 319.77 46.67
8 3 -8 294.43 41.33
8 3 -7 482.28 52.53
8 3 -7 435.55 35.26
8 3 -7 373.03 47.39
8 3 -6 125.26 27.53
8 3 -6 157.19 22.12
8 3 -5 549.87 42.24
8 3 -5 555.39 51.23
8 3 -4 135.11 26.01
8 3 -3 791.02 55.9
8 3 -2 263.3 42.28
8 3 -2 185.6 24.93
8 3 -1 419.56 52.49
8 3 -1 345.16 32.14
8 3 0 1461.27 95.36
8 3 1 262.69 44.91
8 3 2 1115.51 82.93
8 3 3 34.8 23.87
8 3 4 1287.5 91.28
8 3 5 62.89 25.93
8 3 6 208.81 39.75
8 3 7 812.16 75.85
8 3 8 81.79 27.73
8 3 9 345.71 52.62
8 3 10 29.9 18.73
8 3 11 167.34 38.5
8 3 12 49.27 24.03
8 3 13 23.45 15.96
8 3 14 207.37 46.96
8 3 15 70.87 31.8
8 3 16 530.26 72.74
8 3 17 48 30.29
8 3 18 116.03 37.6
8 3 19 11.94 18.41
8 3 20 105.36 38.83
8 3 21 203.23 55.07
8 4 -21 91.7 46.39
8 4 -20 165.09 51.75
8 4 -20 80.31 32.45
8 4 -19 153.06 53.1
8 4 -19 89.77 44.38
8 4 -18 155.22 50.68
8 4 -18 63.47 35.12
8 4 -17 160.5 49.22
8 4 -17 122.88 46.33
8 4 -16 0.28 24.28
8 4 -16 20.94 24.15
8 4 -15 270.34 55.4
8 4 -15 245.29 55.9
8 4 -14 23.16 21.81
8 4 -14 -0.65 27.45
8 4 -13 284.35 55.93
8 4 -13 359.14 61.71
8 4 -13 313.61 43.75
8 4 -12 17.97 21.21
8 4 -12 46.74 22.46
8 4 -11 313.51 52.28
8 4 -11 232.83 36.95
8 4 -10 625.04 60.21
8 4 -10 609.65 71.66
8 4 -9 120.08 32.01
8 4 -9 106.65 25.42
8 4 -8 853.12 76.23
8 4 -7 147.2 30.32
8 4 -7 138.81 16.35
8 4 -6 159.14 29.6
8 4 -6 198.87 21.46
8 4 -5 13.16 10.57
8 4 -5 21.18 9.47
8 4 -4 412.5 24.2
8 4 -4 434.15 42.7
8 4 -3 995.29 59.31
8 4 -2 181.03 44.6
8 4 -2 87.09 16.67
8 4 -1 1062.2 48.36
8 4 -1 1346.07 96.43
8 4 0 145.52 40.72
8 4 1 1390.72 97.39
8 4 2 164.31 40.07
8 4 3 1403.04 97.76
8 4 4 450.42 58.62
8 4 5 294.4 46.81
8 4 6 443.3 57.98
8 4 7 127.45 33.17
8 4 8 647.34 69.54
8 4 9 127.21 35.05
8 4 10 1051.42 92.97
8 4 11 389.33 58.1
8 4 12 29.51 19.54
8 4 13 438.83 66.28
8 4 14 30.08 25.17
8 4 15 131.95 37.12
8 4 16 -4.12 18.75
8 4 17 85.68 33.18
8 4 18 152.05 44.84
8 4 19 164.72 45.53
8 4 20 51.46 29.62
8 4 21 41.21 29.68
8 5 -20 19.36 28.09
8 5 -19 -13.96 28.83
8 5 -19 33.61 28.83
8 5 -18 293.93 62.28
8 5 -18 313.64 68.84
8 5 -17 -11.31 25.28
8 5 -17 37.08 26.83
8 5 -16 362.74 64.51
8 5 -16 361.9 70.37
8 5 -15 26.06 29.16
8 5 -15 75.3 39.18
8 5 -14 96.4 39.72
8 5 -13 76.05 43.61
8 5 -12 93.79 30.06
8 5 -12 92.54 21.83
8 5 -11 196.25 42.69
8 5 -11 174.39 33.03
8 5 -10 92.26 28.08
8 5 -10 135.56 29.56
8 5 -9 720.3 74.78
8 5 -8 23.9 15.43
8 5 -7 400.83 53.07
8 5 -6 446.03 51.62
8 5 -5 1333.83 81.2
8 5 -4 160.26 25.91
8 5 -4 229.23 23.73
8 5 -3 5.28 8.94
8 5 -2 121.71 18.14
8 5 -1 319.74 49.15
8 5 -1 207.02 19.11
8 5 0 44.62 24.71
8 5 1 40.73 24.66
8 5 2 57.87 24.02
8 5 3 42.45 24.1
8 5 4 74.03 30.45
8 5 5 1241.43 97.08
8 5 6 136.69 40.48
8 5 7 1003.87 90.41
8 5 8 113.4 35.12
8 5 9 282.21 49.08
8 5 10 437.36 62.52
8 5 11 84.99 29.24
8 5 12 462.1 65.39
8 5 13 71.08 27.45
8 5 14 175.65 45.56
8 5 15 7.63 17.98
8 5 16 140.38 42.33
8 5 17 81.98 32.37
8 5 18 87.26 36.18
8 5 19 89.98 34.26
8 5 20 22.37 26.74
8 6 -20 52.54 45.03
8 6 -19 37.11 36.67
8 6 -18 -2.57 23.45
8 6 -18 8.72 28.4
8 6 -17 106.33 40.93
8 6 -17 101.36 41.07
8 6 -16 88.25 41.13
8 6 -16 150.74 47.79
8 6 -10 274.68 38.37
8 6 -5 562.43 40.15
8 6 -5 560.77 54.81
8 6 -4 123.4 25.03
8 6 -4 171.96 24.06
8 6 -3 1117.73 63.25
8 6 -2 565.81 38.86
8 6 -1 1474.7 107.24
8 6 -1 979.53 40.74
8 6 0 511.77 66.4
8 6 1 207.34 49.81
8 6 2 2060.21 128.97
8 6 3 443.83 64.25
8 6 4 1294.21 101.99
8 6 5 30.54 22.88
8 6 6 782.54 79.45
8 6 7 371.75 57.63
8 6 8 248.94 49.28
8 6 9 1085.91 97.88
8 6 10 25.67 22.23
8 6 11 489.25 69.11
8 6 12 23.14 22.91
8 6 13 12.93 16.71
8 6 14 34.69 23.74
8 6 15 77.39 32.47
8 6 16 312.25 59.65
8 6 17 -2.98 22.92
8 6 18 54.5 30.61
8 6 19 25.32 18.34
8 6 20 88.62 36.9
8 7 -20 203.76 58.23
8 7 -17 20.05 24.94
8 7 -5 324.54 35.62
8 7 -4 977.43 60.66
8 7 0 118.38 44.44
8 7 1 933.79 88.78
8 7 2 157.72 44.52
8 7 3 1069.32 96.54
8 7 4 555.42 71.38
8 7 5 1807.17 126.64
8 7 6 456.26 70.06
8 7 7 493.86 67.91
8 7 8 589.46 74.74
8 7 9 198.74 45.23
8 7 10 333.74 57.32
8 7 11 113.71 37.77
8 7 12 69.51 34.39
8 7 13 352.79 62.73
8 7 14 26.72 26.93
8 7 15 139.99 41.27
8 7 16 -31.83 23.63
8 7 17 178.16 48.95
8 7 18 36.14 31.08
8 7 19 154.26 45.2
8 7 20 94.89 37.41
8 8 -5 295.81 37.69
8 8 -4 140.75 26.54
8 8 -3 282.78 37.48
8 8 0 1029.08 98.9
8 8 1 295.7 61.43
8 8 2 906.8 90.24
8 8 3 90.12 37.06
8 8 4 171.54 43.72
8 8 5 495.38 67.76
8 8 6 10.27 25.56
8 8 7 440.03 66.8
8 8 8 -0.17 25.79
8 8 9 531.99 72.38
8 8 10 62.11 29.23
8 8 11 413.07 67.91
8 8 12 360.77 61.69
8 8 13 15.93 25.29
8 8 14 281 59.19
8 8 15 -13.43 21.94
8 8 16 171.67 47.45
8 8 17 -20.69 28.95
8 8 18 125.56 46.29
8 8 19 45.69 30.53
8 9 -6 150.65 29.74
8 9 -5 119.35 26.29
8 9 -4 146.98 29.44
8 9 -3 640.27 59.19
8 9 0 42.23 26.14
8 9 1 48.5 29.61
8 9 2 307.75 57.64
8 9 3 164.16 48.61
8 9 4 913.44 95.81
8 9 5 141.81 48.14
8 9 6 543.43 75.96
8 9 7 242.31 51.82
8 9 8 193.9 49.84
8 9 9 257 53.79
8 9 10 -12 17.4
8 9 11 190.04 48.08
8 9 12 6.61 18.96
8 9 13 142.65 47.11
8 9 14 -0.8 21.6
8 9 15 146.43 47.75
8 9 16 79.84 34.49
8 9 17 37.04 24.17
8 9 18 135.83 44.62
8 9 19 -36.62 20.07
8 10 -6 334.86 44.26
8 10 -5 3.42 17.74
8 10 -4 155.12 32.64
8 10 -3 14.83 14.05
8 10 -2 104.87 27.33
8 10 0 549.33 81.37
8 10 1 1177.66 112.75
8 10 2 394.97 69.33
8 10 3 1056.48 105.5
8 10 4 155.03 53.55
8 10 5 147.33 46.04
8 10 6 108.25 41.69
8 10 7 148.74 46.63
8 10 8 175.58 46.62
8 10 9 144.57 45.67
8 10 10 171.94 45.66
8 10 11 -11.11 19.31
8 10 12 113.3 38.07
8 10 13 -17 18.2
8 10 14 200.15 49.49
8 10 15 58.67 32.83
8 10 16 73.74 40.33
8 10 17 111.98 39.55
8 10 18 -39.57 31.82
8 11 -5 397.39 53.7
8 11 -4 256.84 47.43
8 11 -3 648.41 70.46
8 11 -2 175.2 37.25
8 11 0 588.81 82.67
8 11 1 192.79 59.52
8 11 2 574.44 81.63
8 11 3 123.79 42.16
8 11 4 414.14 71.39
8 11 5 460.36 74.88
8 11 6 269.01 58.68
8 11 7 696.45 89.98
8 11 8 214.28 54.11
8 11 9 358.06 68.26
8 11 10 44.31 40.42
8 11 11 205.03 52.68
8 11 12 123.66 43.29
8 11 13 39.26 29.87
8 11 14 84.74 37.06
8 11 15 7.3 24.09
8 11 16 112.99 41.97
8 11 17 23.29 20.3
8 12 -5 8.94 21.55
8 12 -4 18.63 15.65
8 12 -3 290.18 48.99
8 12 -2 33.95 23.74
8 12 -1 254.98 47.83
8 12 0 68.4 41.24
8 12 1 -5.06 21.12
8 12 2 19.09 20.39
8 12 3 17.54 25.39
8 12 4 88.23 36.77
8 12 5 82.44 40.45
8 12 6 154.14 46.68
8 12 7 44.91 35.32
8 12 8 142.27 43.69
8 12 9 190.92 51.43
8 12 10 164.11 49.4
8 12 11 309.51 65.6
8 12 12 35.9 21.46
8 12 13 138.33 44.6
8 12 14 10.95 22.52
8 12 15 111.16 42.17
8 12 16 40.63 31.18
8 13 -4 466.61 66.03
8 13 -3 134 40.43
8 13 -2 174.15 41.13
8 13 -1 21.83 20.13
8 13 0 232.91 58.7
8 13 0 131.95 38.12
8 13 1 162.25 52.71
8 13 2 88.34 37.91
8 13 3 208.71 55.94
8 13 4 94.49 46.25
8 13 5 198.18 55.31
8 13 6 73.76 36.95
8 13 7 269.48 63.57
8 13 8 185.18 53.11
8 13 9 424.06 77.59
8 13 10 285.91 63.62
8 13 11 6.11 25.15
8 13 12 158.12 49.1
8 13 13 98.99 43.99
8 13 14 114.64 44.02
8 14 -3 333.17 59.35
8 14 -2 162.26 45.83
8 14 -1 179.83 53.81
8 14 -1 181.74 45.1
8 14 0 222.89 44.87
8 14 0 170.07 55.85
8 14 1 109.66 35.06
8 14 1 118.09 49.08
8 14 2 101.07 46.29
8 14 3 70.34 37.46
8 14 4 305.35 69.35
8 14 5 223.23 62.05
8 14 6 324.65 72.73
8 14 7 278.49 67.5
8 14 8 226.51 64.87
8 14 9 223.34 56.83
8 14 10 69.86 42.93
8 14 11 323.99 68.5
8 14 12 266.88 63.52
8 15 -2 92.62 39.32
8 15 -1 335.34 61.92
8 15 0 135.13 48.67
8 15 1 146.94 45.52
8 15 2 65.45 38.91
8 15 3 106.88 49.52
8 15 4 116.32 46.43
8 15 5 168.97 49.67
8 15 6 291.96 65.47
8 16 -1 84.15 38.21
9 -10 -8 93.26 42.74
9 -10 -7 179.83 55.56
9 -10 -6 53.37 32.88
9 -10 -5 317.19 68
9 -10 -4 58.05 38.44
9 -10 -3 285.07 64.42
9 -10 -2 136.04 45.7
9 -10 -1 162.23 51.81
9 -10 0 290.15 63.64
9 -10 1 109.45 48.25
9 -10 2 81.47 35.99
9 -10 3 138.21 47.29
9 -9 -11 96.4 49.91
9 -9 -10 184.71 50.28
9 -9 -10 167.95 55.49
9 -9 -9 20.98 23.61
9 -9 -9 70.72 42.86
9 -9 -8 274.52 62.28
9 -9 -8 272.07 69.29
9 -9 -7 119.81 44.94
9 -9 -6 473.05 76.5
9 -9 -5 76.79 38.82
9 -9 -4 172.13 54.86
9 -9 -3 143.8 47.15
9 -9 -2 60.97 29.84
9 -9 -1 186.98 55.3
9 -9 0 142.3 47.58
9 -9 1 450.37 73.74
9 -9 2 68.41 35.05
9 -9 3 293.11 60.76
9 -9 4 16.83 20.97
9 -9 5 66.63 30.75
9 -9 6 87.62 34.39
9 -9 7 10.66 24.69
9 -9 8 135.96 44.71
9 -9 10 198.46 49.5
9 -9 11 -0.67 26.53
9 -8 -14 153.11 52.15
9 -8 -13 -10.46 25.09
9 -8 -12 195.68 61.99
9 -8 -11 223.65 60.34
9 -8 -10 37.29 32.05
9 -8 -10 38.61 31.26
9 -8 -9 429.45 72.74
9 -8 -9 580.24 95.24
9 -8 -8 52.15 31.13
9 -8 -8 74.04 44.14
9 -8 -7 230.3 50.8
9 -8 -7 286.21 68.41
9 -8 -6 21.78 18.25
9 -8 -6 61.5 41.65
9 -8 -5 44.49 30.8
9 -8 -4 278.52 57.2
9 -8 -3 57.03 36.56
9 -8 -2 742.57 91.59
9 -8 -1 93.65 43.74
9 -8 0 134.67 41.96
9 -8 1 60.69 37.42
9 -8 2 88.69 38.48
9 -8 3 331.76 63.41
9 -8 4 113.77 44.21
9 -8 5 317.56 62.35
9 -8 6 2.03 17.62
9 -8 7 261.56 60.61
9 -8 7 168.57 41.97
9 -8 8 143.28 46.97
9 -8 8 95.33 29.99
9 -8 9 45.06 22.72
9 -8 10 118.13 39.28
9 -8 11 1.87 25.16
9 -8 12 76.44 39.04
9 -7 -15 87.51 35
9 -7 -14 66.68 38.48
9 -7 -13 61.85 34.22
9 -7 -12 240.21 60.57
9 -7 -11 -26.47 19.5
9 -7 -11 36.92 32.37
9 -7 -10 251.4 55.45
9 -7 -10 190.75 54.43
9 -7 -9 -20.15 27.4
9 -7 -9 56.24 41.62
9 -7 -8 303.17 61.43
9 -7 -8 320.74 68.69
9 -7 -7 286.82 60.19
9 -7 -7 272.15 62.08
9 -7 -6 147.85 44.98
9 -7 -6 238.92 64.99
9 -7 -5 1262.73 118.46
9 -7 -5 1379.39 135.61
9 -7 -4 121.65 42.61
9 -7 -3 277.81 55.08
9 -7 -2 38.07 29.18
9 -7 -1 71.35 30.42
9 -7 0 608.29 81.98
9 -7 1 731.07 89.84
9 -7 2 487.45 73.7
9 -7 3 45.18 27.93
9 -7 4 381.26 67.68
9 -7 4 338.91 50.14
9 -7 5 46.04 27.95
9 -7 5 50.44 21.94
9 -7 6 134.76 38.26
9 -7 7 82.32 30.2
9 -7 8 100.07 36.55
9 -7 9 110.79 32.67
9 -7 10 22.35 22.25
9 -7 11 87.46 33.2
9 -7 12 20.37 24.43
9 -7 13 88.96 35.91
9 -7 14 50.85 31.95
9 -6 -17 94.44 47.59
9 -6 -16 22.83 21.69
9 -6 -15 106.46 48.27
9 -6 -14 44.64 34.83
9 -6 -13 274.63 64.69
9 -6 -12 48.99 33.9
9 -6 -11 352.81 63.3
9 -6 -11 403.52 75.31
9 -6 -10 88.75 35.89
9 -6 -10 105.25 41.62
9 -6 -9 181.69 46.79
9 -6 -9 240.17 62.53
9 -6 -8 145.51 38.51
9 -6 -8 187.14 56.12
9 -6 -7 148.74 43.21
9 -6 -7 116.79 40.62
9 -6 -6 234.55 50.28
9 -6 -6 206.15 52.02
9 -6 -5 55.03 30.56
9 -6 -5 82.93 43.79
9 -6 -4 627.56 80.42
9 -6 -4 649.73 89.43
9 -6 -3 314.8 58.85
9 -6 -2 570.52 76.79
9 -6 -1 852.11 92.17
9 -6 0 224.7 52.72
9 -6 1 648.09 84.63
9 -6 2 60.36 33.24
9 -6 2 65.14 22.58
9 -6 3 294.28 57.66
9 -6 3 230.84 40.27
9 -6 4 155.68 39.11
9 -6 4 167.39 34.65
9 -6 5 139.92 39.65
9 -6 5 118.82 30.88
9 -6 6 255.06 47.05
9 -6 6 241.72 47.51
9 -6 7 -16.44 17.29
9 -6 7 4.94 18.84
9 -6 8 372.98 55.32
9 -6 8 317.89 54.38
9 -6 9 -35.79 23.29
9 -6 9 48.57 28.3
9 -6 10 138.01 34.74
9 -6 10 214.33 47.2
9 -6 11 4.46 24.9
9 -6 12 79.74 34.63
9 -6 13 88.25 36.64
9 -6 14 79.37 37.56
9 -5 -18 218.01 61.97
9 -5 -17 57.76 33.74
9 -5 -16 153.65 49.89
9 -5 -15 41.59 30.07
9 -5 -14 285.21 64.22
9 -5 -13 117.26 47.85
9 -5 -12 171.78 54.67
9 -5 -11 63.42 25.86
9 -5 -11 76.25 33.73
9 -5 -10 145.95 40.01
9 -5 -10 97.02 43.77
9 -5 -9 339.56 56.98
9 -5 -9 309.16 60.47
9 -5 -8 47.73 26.41
9 -5 -8 52.83 32.96
9 -5 -7 930.09 92.67
9 -5 -7 850.36 100.76
9 -5 -6 136.02 43.16
9 -5 -6 150.82 53.8
9 -5 -5 543.16 70.71
9 -5 -5 512.82 80.8
9 -5 -4 205.7 47.74
9 -5 -4 262.5 56.32
9 -5 -3 117.78 37.15
9 -5 -2 745.45 82.44
9 -5 -1 86.74 35.58
9 -5 -1 130.19 40.77
9 -5 0 125.91 36.24
9 -5 0 138.05 37.36
9 -5 1 38 28.07
9 -5 1 16.39 18.81
9 -5 2 404.84 59.82
9 -5 2 458.45 69.55
9 -5 3 587.84 69.79
9 -5 4 328.46 53.45
9 -5 4 254.9 37.77
9 -5 5 715.24 75.93
9 -5 5 580.86 56.61
9 -5 6 19.3 25.02
9 -5 6 9.81 13.86
9 -5 7 293.4 51.09
9 -5 7 234.23 41.8
9 -5 8 92.45 31.33
9 -5 8 38.32 14.88
9 -5 9 194.06 43.87
9 -5 9 159.24 38.93
9 -5 10 163.92 39.05
9 -5 10 128.25 34.89
9 -5 11 29.84 16.9
9 -5 12 260.93 54.21
9 -5 13 -1.42 19.48
9 -5 14 166.14 45.4
9 -5 15 -17.81 23.37
9 -4 -19 58.47 37.68
9 -4 -18 63.17 35.51
9 -4 -17 151.66 50.14
9 -4 -16 9.09 23.94
9 -4 -15 163.26 50.2
9 -4 -14 133.13 44.69
9 -4 -13 77.73 36.28
9 -4 -12 349.49 67.09
9 -4 -11 14.08 19.11
9 -4 -11 54.25 29.15
9 -4 -10 840.37 88.07
9 -4 -10 724.44 92.16
9 -4 -9 29.69 24.64
9 -4 -9 14.15 29.24
9 -4 -8 380.92 58.84
9 -4 -8 438.49 73.13
9 -4 -7 128.83 38.37
9 -4 -7 75.34 32.69
9 -4 -6 79.75 30.32
9 -4 -6 77.76 34.35
9 -4 -5 751.69 80.17
9 -4 -5 836.7 92.67
9 -4 -4 342.77 54.31
9 -4 -4 402.69 60.35
9 -4 -4 333.8 62.18
9 -4 -3 299.87 53.34
9 -4 -3 360.15 56.34
9 -4 -3 284.04 54.86
9 -4 -2 0.19 15.71
9 -4 -2 2.66 17.07
9 -4 -1 54.36 28.13
9 -4 -1 54.17 26.97
9 -4 0 159.11 37.58
9 -4 0 220.53 47.09
9 -4 1 274.2 33.15
9 -4 1 273.05 49.83
9 -4 2 288 35.92
9 -4 2 376.99 58.04
9 -4 3 276.05 38.59
9 -4 3 267.15 48.32
9 -4 4 13.38 13.04
9 -4 4 22.76 22.91
9 -4 5 69.01 28.57
9 -4 5 23.41 19.01
9 -4 6 403.84 58.63
9 -4 6 369.62 49.89
9 -4 7 148.92 37.19
9 -4 7 65.83 29.24
9 -4 8 373.77 54.32
9 -4 8 369.01 52.88
9 -4 9 198.17 38.72
9 -4 9 160.02 38.15
9 -4 10 87.58 34.08
9 -4 10 156.43 36.33
9 -4 11 234.58 44.88
9 -4 11 265.66 49.9
9 -4 12 -4.22 15
9 -4 12 -20.08 17.73
9 -4 13 160.62 42.56
9 -4 14 2.56 19.67
9 -4 15 41.93 29.6
9 -4 16 106.83 39.68
9 -3 -19 -7.13 23.16
9 -3 -18 244.85 63.43
9 -3 -17 19.27 23.89
9 -3 -16 229.57 59.22
9 -3 -15 24.97 28.12
9 -3 -14 173.08 49.38
9 -3 -13 325.6 63.95
9 -3 -12 27.54 26.91
9 -3 -11 253.34 47.72
9 -3 -11 292.82 59.42
9 -3 -10 5.13 15.78
9 -3 -10 6.75 21.92
9 -3 -9 156.07 37.47
9 -3 -9 144.85 41.18
9 -3 -9 169.54 47.34
9 -3 -8 330.18 53.49
9 -3 -8 350.39 62.25
9 -3 -8 389.83 63.21
9 -3 -7 593.26 69.7
9 -3 -7 620 79.17
9 -3 -7 500.87 72.12
9 -3 -6 405.86 58.43
9 -3 -6 345.67 53.71
9 -3 -6 321.79 60.04
9 -3 -6 399.96 63.45
9 -3 -5 21.05 20.05
9 -3 -5 48.96 26.41
9 -3 -5 11.51 19.35
9 -3 -4 637.73 71.52
9 -3 -4 628.02 71.15
9 -3 -4 668 80.14
9 -3 -4 527.96 67.45
9 -3 -3 290.94 49.26
9 -3 -3 297.78 49.33
9 -3 -3 305.11 56.1
9 -3 -3 248.23 48.65
9 -3 -2 390.99 57.55
9 -3 -2 452.6 60.86
9 -3 -2 474.56 38.23
9 -3 -2 396.73 61.46
9 -3 -2 288.61 51.84
9 -3 -1 326.14 52.86
9 -3 -1 254.97 46.27
9 -3 -1 311.28 33.57
9 -3 -1 257.24 46.95
9 -3 0 524.91 63.48
9 -3 0 486.01 41.57
9 -3 0 331.84 50.66
9 -3 1 330.55 51.64
9 -3 1 309.41 34.59
9 -3 1 298.81 48.15
9 -3 2 55.18 26.46
9 -3 2 78.47 21.25
9 -3 2 53.72 26.1
9 -3 3 430.59 59.02
9 -3 3 407.04 44.83
9 -3 3 501.79 57.99
9 -3 4 399.92 56.83
9 -3 4 360.77 46.13
9 -3 4 333.63 46.77
9 -3 5 604.34 67.06
9 -3 5 592.15 59.97
9 -3 5 529.27 55.91
9 -3 6 90.49 20.95
9 -3 6 150.2 37.88
9 -3 6 156.48 30.08
9 -3 7 62.66 23.58
9 -3 7 50.25 19.43
9 -3 8 164.61 36.01
9 -3 8 152.62 34.51
9 -3 9 -15.95 23.04
9 -3 9 21.71 20.16
9 -3 10 421.35 57.15
9 -3 10 370.47 52.76
9 -3 11 117.98 29.42
9 -3 11 79.76 28.74
9 -3 12 152.38 37.62
9 -3 12 222.92 47.79
9 -3 13 289.38 46.87
9 -3 13 208.42 46.28
9 -3 14 31.23 21.93
9 -3 15 204.82 48.65
9 -3 16 74.2 24.92
9 -3 17 149.59 42.99
9 -3 18 90.78 38.22
9 -2 -20 -21.64 32.9
9 -2 -19 337.79 75.32
9 -2 -18 28.7 38.86
9 -2 -17 38.85 23.58
9 -2 -16 138.85 47.38
9 -2 -15 25.9 22.89
9 -2 -14 626.59 87.38
9 -2 -13 -6.95 19.04
9 -2 -13 -21.49 28.87
9 -2 -12 421.31 69.77
9 -2 -12 431.58 68.69
9 -2 -11 28.33 21.38
9 -2 -11 9.75 20.23
9 -2 -11 79.09 29.36
9 -2 -10 694.95 72.09
9 -2 -10 685.88 82.42
9 -2 -10 607.26 81.7
9 -2 -9 136.2 32.16
9 -2 -9 172.98 43.95
9 -2 -9 194.77 46.26
9 -2 -8 32.61 22.93
9 -2 -8 10.1 13.48
9 -2 -8 76.72 32.68
9 -2 -8 5.19 27.18
9 -2 -7 980.08 88.68
9 -2 -7 1032.75 87.48
9 -2 -7 1079.16 100.51
9 -2 -7 908.58 91.86
9 -2 -6 98.26 32.65
9 -2 -6 49.62 25.41
9 -2 -6 94.45 22.83
9 -2 -6 12.47 21.17
9 -2 -6 85.47 33.85
9 -2 -5 250.52 44.94
9 -2 -5 237.72 27.33
9 -2 -5 245.81 44.68
9 -2 -5 287.42 53.94
9 -2 -5 226.79 47.02
9 -2 -4 42.41 15.85
9 -2 -4 33.27 19.97
9 -2 -4 22.36 16.32
9 -2 -4 39.29 24.37
9 -2 -4 42.69 26.01
9 -2 -3 423.19 59.87
9 -2 -3 462.89 39.06
9 -2 -3 446.71 58.65
9 -2 -3 408.84 60.35
9 -2 -3 354.8 55.27
9 -2 -2 582.3 45.26
9 -2 -2 606.39 68.91
9 -2 -2 474.86 59.16
9 -2 -2 486.76 63.85
9 -2 -2 549.77 65.61
9 -2 -1 331.27 53.65
9 -2 -1 200.54 43.75
9 -2 -1 373.67 39.93
9 -2 0 1176.62 92.42
9 -2 0 1106.29 89.99
9 -2 0 1183.81 68.82
9 -2 1 65.82 28.2
9 -2 1 119.03 26.88
9 -2 1 72.56 27.44
9 -2 2 288.29 47.39
9 -2 2 293.44 37.27
9 -2 2 255.09 45.09
9 -2 3 231.13 43.03
9 -2 3 182.76 33.83
9 -2 3 208.66 38.42
9 -2 4 325.23 47.89
9 -2 4 369.41 47.38
9 -2 4 266.52 42.45
9 -2 5 163.83 37.14
9 -2 5 118.96 27.84
9 -2 5 167.77 32.63
9 -2 6 312.2 45.78
9 -2 6 291.37 40.96
9 -2 7 475.9 57.68
9 -2 7 555.51 54.37
9 -2 8 27.65 19.89
9 -2 9 568.17 66.56
9 -2 10 72.07 23.53
9 -2 11 187.69 41.67
9 -2 12 141.24 39.81
9 -2 13 178.63 42.95
9 -2 14 62.38 32.43
9 -2 15 12.44 23.72
9 -2 16 88.78 33.2
9 -2 17 40.98 25.57
9 -2 18 122.43 41.68
9 -1 -20 81.88 34.9
9 -1 -19 127.71 45.41
9 -1 -18 84.49 38.09
9 -1 -17 298.5 65.3
9 -1 -16 43.78 28.49
9 -1 -16 38.94 23.12
9 -1 -15 733.79 97.49
9 -1 -15 687.73 91.76
9 -1 -14 -27.29 31.58
9 -1 -14 -8.1 26.49
9 -1 -13 480.68 73.97
9 -1 -13 527.95 79.43
9 -1 -12 344.53 60.96
9 -1 -12 333.17 62.11
9 -1 -11 110.38 33.52
9 -1 -11 76.36 34.92
9 -1 -10 682.63 69.05
9 -1 -10 614.2 76.59
9 -1 -10 665.42 83.7
9 -1 -9 156.95 38.55
9 -1 -9 222.76 39.14
9 -1 -9 131.96 38.97
9 -1 -9 222.64 46.74
9 -1 -8 819.44 80.42
9 -1 -8 848.27 74.85
9 -1 -8 869.2 60.3
9 -1 -8 862.29 87.67
9 -1 -8 926.95 94.71
9 -1 -7 33.81 17.41
9 -1 -7 0.25 18.7
9 -1 -7 23.4 17.24
9 -1 -7 18.89 16.59
9 -1 -7 -23.79 20.13
9 -1 -6 582.26 48.23
9 -1 -6 577.18 65.73
9 -1 -6 558.23 59.48
9 -1 -6 629.64 70.56
9 -1 -6 473.44 65.33
9 -1 -5 525.6 64.71
9 -1 -5 529.88 58.5
9 -1 -5 518.16 64.67
9 -1 -5 534.45 45.81
9 -1 -5 524.48 68.26
9 -1 -4 374.56 56.26
9 -1 -4 451.05 57.95
9 -1 -4 498.15 57.75
9 -1 -4 519.95 46.06
9 -1 -4 514.04 65.03
9 -1 -3 616.12 67.79
9 -1 -3 584.36 47.7
9 -1 -3 638.13 65.45
9 -1 -3 598.67 68.38
9 -1 -3 666.16 71.49
9 -1 -2 29.31 21.61
9 -1 -2 24.39 23.69
9 -1 -2 75.83 19.49
9 -1 -2 60.27 26.46
9 -1 -1 129.41 28.31
9 -1 -1 184.34 28.14
9 -1 -1 170.83 35.58
9 -1 0 113.37 29.56
9 -1 0 97.59 22.82
9 -1 0 90.16 30.27
9 -1 1 559.07 49.8
9 -1 1 416.83 53.49
9 -1 1 398.54 50.56
9 -1 2 402.68 45.79
9 -1 2 431.41 51.22
9 -1 3 552.54 55.99
9 -1 3 625.4 57.64
9 -1 4 396.73 47.27
9 -1 4 443.15 50.65
9 -1 5 6.95 15.42
9 -1 5 12.68 17.72
9 -1 6 964.16 78.07
9 -1 6 730.77 60.44
9 -1 7 259.69 42.91
9 -1 7 378.32 43.09
9 -1 8 868.64 77.4
9 -1 8 796.89 60.43
9 -1 9 36.36 23.42
9 -1 10 231.68 42.38
9 -1 11 496.31 63.98
9 -1 12 91.68 32.22
9 -1 13 849.46 89.17
9 -1 14 -3.35 17.16
9 -1 15 302.55 55.85
9 -1 16 67.84 34.64
9 -1 17 116.46 41.75
9 -1 18 183.58 50.74
9 -1 19 24.9 26.68
9 0 -20 68.8 43.03
9 0 -19 87.22 41.45
9 0 -18 193.08 58.21
9 0 -18 250.48 58.91
9 0 -17 -6.84 28.83
9 0 -17 2.29 24.07
9 0 -16 133.32 42.58
9 0 -16 253.18 58.71
9 0 -15 -27.42 19.55
9 0 -15 80.86 36.31
9 0 -14 27.43 32.58
9 0 -14 44.44 29.53
9 0 -13 545.84 76.08
9 0 -13 460.87 74.76
9 0 -12 306.17 59.34
9 0 -12 285.11 58.85
9 0 -11 822.61 94.94
9 0 -11 676.31 80.48
9 0 -10 31.09 27.92
9 0 -10 33.12 21.46
9 0 -10 78.38 26.43
9 0 -10 88.74 33.46
9 0 -9 565.47 66.12
9 0 -9 488.52 53.5
9 0 -9 526.29 66.7
9 0 -9 602.56 77.61
9 0 -8 218.95 44.89
9 0 -8 119.44 31.79
9 0 -8 161.99 33.3
9 0 -8 109.01 33.44
9 0 -7 741.71 74.44
9 0 -7 771.79 67.57
9 0 -7 759.8 62.52
9 0 -7 807.19 78.82
9 0 -7 712.07 76.96
9 0 -6 311.79 53.08
9 0 -6 252.54 42.72
9 0 -6 304.4 42.07
9 0 -6 254.58 39.6
9 0 -6 278.64 48.32
9 0 -5 546.95 61.98
9 0 -5 642.76 55.91
9 0 -5 629.56 60.41
9 0 -5 594.3 65.93
9 0 -5 494.53 66.14
9 0 -4 690.7 57.19
9 0 -4 661.17 69.79
9 0 -4 572.23 59.42
9 0 -4 550.37 63.58
9 0 -4 747.08 75.13
9 0 -3 98.76 34.72
9 0 -3 167.63 33.3
9 0 -3 72.37 31.3
9 0 -3 109.72 31.09
9 0 -2 1740.56 109.2
9 0 -2 1994.63 96.22
9 0 -2 1842.6 108.33
9 0 -2 1723.04 110.23
9 0 -1 463.51 33.62
9 0 -1 550.53 60.43
9 0 0 2990.08 121.09
9 0 1 814.87 64.96
9 0 2 340.01 46.04
9 0 3 1242.37 81.98
9 0 4 58.49 24.12
9 0 5 706.94 67.34
9 0 6 224.53 41.14
9 0 7 411.81 55.21
9 0 8 177.49 40.02
9 0 9 -25.06 22.67
9 0 10 931.76 85.56
9 0 11 113.54 34.68
9 0 12 334.31 54.64
9 0 13 19.83 20.99
9 0 14 48.22 23.74
9 0 15 108.01 34.22
9 0 16 79.35 27.52
9 0 17 221.54 52.15
9 0 18 -6.57 19.03
9 0 19 191.57 51.84
9 1 -21 234.11 69.45
9 1 -20 63.19 37.65
9 1 -19 276.64 67.58
9 1 -19 281.1 68.57
9 1 -18 -35.87 28.75
9 1 -18 65.61 39.35
9 1 -17 172.32 57.09
9 1 -17 131.57 49.42
9 1 -16 35.2 26.62
9 1 -16 65.68 38.06
9 1 -15 140.56 42.07
9 1 -15 175.71 48.39
9 1 -14 394.19 67.24
9 1 -14 490.16 76.37
9 1 -13 38.98 24.02
9 1 -13 22.61 23.55
9 1 -12 441.47 71.08
9 1 -12 373.24 63.19
9 1 -11 66.63 34.9
9 1 -11 138.59 38.48
9 1 -11 73.69 26.89
9 1 -10 30.64 27.34
9 1 -10 39.03 27.49
9 1 -10 35.21 18.51
9 1 -9 108.86 32.11
9 1 -9 123.17 38.97
9 1 -9 88.33 30.17
9 1 -9 118.02 26.28
9 1 -8 139.91 34.34
9 1 -8 95.09 34.17
9 1 -8 192.44 39.85
9 1 -8 142.07 28.93
9 1 -7 300.24 52.16
9 1 -7 283.64 46.99
9 1 -7 190.78 31.07
9 1 -7 271.03 45.01
9 1 -6 31.46 25.05
9 1 -6 42.12 16.69
9 1 -6 57.27 23.91
9 1 -6 37.89 16.81
9 1 -6 43.46 22.34
9 1 -5 467.52 55.99
9 1 -5 481.48 50.36
9 1 -5 554.93 55.49
9 1 -5 481.9 56.31
9 1 -4 67.7 26.62
9 1 -4 12.58 19.61
9 1 -4 43.01 18.19
9 1 -4 10.22 19.95
9 1 -3 494.84 51.48
9 1 -3 397.08 47.37
9 1 -2 209.42 37.11
9 1 -2 171.28 32.25
9 1 -1 350.86 43.03
9 1 -1 442.52 49.66
9 1 0 609.96 56.46
9 1 1 174.38 32.64
9 1 2 700.16 61.88
9 1 3 26.55 19.94
9 1 4 408.44 49.56
9 1 5 85.06 27.9
9 1 6 92.87 29.61
9 1 7 352 51.99
9 1 8 21.79 16.87
9 1 9 77.99 27.03
9 1 10 11.56 16.95
9 1 11 256.21 46.96
9 1 12 66.06 27.74
9 1 13 260.69 49.51
9 1 14 121.84 35.71
9 1 15 12.65 23.85
9 1 16 294.36 56.33
9 1 17 -19.88 23.58
9 1 18 132.24 43.28
9 1 19 5.82 20.23
9 2 -21 37.77 36.8
9 2 -20 69.74 29.92
9 2 -20 117.91 44.34
9 2 -19 82.39 43.58
9 2 -19 30.04 34.54
9 2 -18 141.59 51.55
9 2 -18 165.77 51.91
9 2 -17 66.02 41.18
9 2 -17 101.2 37.85
9 2 -16 101.35 41.22
9 2 -16 87.21 40.34
9 2 -15 297.19 60.01
9 2 -15 294.77 61.71
9 2 -14 28.82 24.55
9 2 -14 -9.87 24.67
9 2 -13 134.97 42.79
9 2 -13 52.02 28.81
9 2 -12 29.26 26.54
9 2 -12 7.68 17.75
9 2 -12 24.55 24.89
9 2 -11 20.37 25.31
9 2 -11 60.01 26.81
9 2 -11 52.94 20.14
9 2 -10 330.53 54.06
9 2 -10 459.63 67.68
9 2 -10 348.14 50.9
9 2 -9 1501.15 102.81
9 2 -9 1654.38 83.42
9 2 -9 1483.23 109.73
9 2 -9 1306.63 109.28
9 2 -8 860.13 77.91
9 2 -8 736.33 56.2
9 2 -8 696.66 73.37
9 2 -7 146.94 33.51
9 2 -7 193.5 39.86
9 2 -7 151.16 28
9 2 -6 1118.45 87.34
9 2 -6 1262.62 75.78
9 2 -6 1063.1 82.65
9 2 -5 388.43 51.39
9 2 -5 305.63 38.87
9 2 -5 305.25 44.17
9 2 -4 236.7 42.02
9 2 -4 175.84 31.64
9 2 -3 639.76 64.85
9 2 -3 457.54 49.17
9 2 -2 1144.02 84.74
9 2 -2 882.17 64.95
9 2 -1 837 73.16
9 2 -1 607.75 51.03
9 2 0 107.3 32.91
9 2 1 1696.08 100.62
9 2 2 559.76 60.84
9 2 3 538.28 58.79
9 2 4 75.39 28.25
9 2 5 431.94 55.87
9 2 6 828.46 76.41
9 2 7 43.04 25.88
9 2 8 2084.36 127.22
9 2 9 349.5 53.45
9 2 10 522.25 66.38
9 2 11 86.65 35.71
9 2 12 -35.62 22.72
9 2 13 273.15 54.65
9 2 14 51.47 24.91
9 2 15 166.4 44.38
9 2 16 14.13 23.67
9 2 17 200.87 47.89
9 2 18 78.36 34.52
9 2 19 61.35 28.95
9 3 -22 9.04 23.67
9 3 -21 49.11 33.54
9 3 -20 108.91 52.07
9 3 -20 50.97 35.53
9 3 -19 9.58 24.25
9 3 -19 75.32 35.82
9 3 -18 213.73 61.06
9 3 -18 237.23 58.52
9 3 -17 9.15 21.97
9 3 -17 -24 30.38
9 3 -16 261.16 63.32
9 3 -16 258.94 57.48
9 3 -15 75.63 37.09
9 3 -15 50.34 35.08
9 3 -14 357.07 65.11
9 3 -14 305.85 60
9 3 -13 254.7 57.12
9 3 -13 193.02 46.25
9 3 -12 277.61 55.28
9 3 -12 278.37 51.76
9 3 -12 216.65 39.72
9 3 -11 768.29 72.88
9 3 -11 755.54 86.43
9 3 -11 713.74 83.34
9 3 -10 82.8 31.58
9 3 -10 66.81 25.65
9 3 -9 167.29 39.72
9 3 -9 212.34 39.62
9 3 -8 165.27 35.56
9 3 -8 152.72 35.86
9 3 -7 370.52 49.81
9 3 -7 383.09 37.18
9 3 -7 357.97 49.93
9 3 -6 842.62 56.01
9 3 -6 725.7 66.69
9 3 -5 536.11 46.43
9 3 -5 566.23 56.33
9 3 -4 890.67 80.06
9 3 -4 696.48 58.65
9 3 -3 6.86 21.77
9 3 -3 7.89 11.55
9 3 -2 703.05 68.85
9 3 -2 600.96 48.46
9 3 -1 64.16 31.52
9 3 -1 17.63 10.91
9 3 0 779.44 73.88
9 3 1 213.83 42.56
9 3 2 393.21 53.32
9 3 3 426.33 55.18
9 3 4 187.97 41.68
9 3 5 1616.85 107.5
9 3 6 458.45 59.12
9 3 7 531.77 62.36
9 3 8 11.84 17.81
9 3 9 205.91 43.1
9 3 10 355.7 56.67
9 3 11 409.73 61.83
9 3 12 713.96 83.21
9 3 13 8.95 16.92
9 3 14 265.84 52.61
9 3 15 49.7 27.91
9 3 16 132.66 38.42
9 3 17 137.96 43.79
9 3 18 72.22 30.65
9 3 19 73.95 34.07
9 4 -21 -18.56 29.12
9 4 -20 97.52 52.6
9 4 -20 124.68 47.65
9 4 -19 26.13 32.89
9 4 -19 88.37 43.13
9 4 -18 26.99 26.23
9 4 -18 21.13 25.27
9 4 -17 122 47.01
9 4 -17 196.82 56.82
9 4 -16 4.41 21.7
9 4 -16 -41.63 33.58
9 4 -15 93.4 36.05
9 4 -15 79.11 35.91
9 4 -14 14.27 22.27
9 4 -14 41.91 24.96
9 4 -13 38.42 31.87
9 4 -13 57.95 21.1
9 4 -12 57.65 27.32
9 4 -12 38.54 20.58
9 4 -11 139.89 38.45
9 4 -11 129.63 29.7
9 4 -10 287.79 50.36
9 4 -10 253.17 42.36
9 4 -9 59.19 26.49
9 4 -9 52 21.4
9 4 -8 740.48 69.55
9 4 -8 863.97 78.66
9 4 -7 194.5 36.72
9 4 -6 183.07 32.26
9 4 -6 232.67 27.28
9 4 -5 695.65 47.97
9 4 -5 615.66 55.22
9 4 -4 186.92 30.03
9 4 -3 781.24 79.37
9 4 -3 624.48 49.2
9 4 -2 207.32 47.74
9 4 -2 83.23 17.01
9 4 -1 651 72.88
9 4 -1 448.9 32.58
9 4 0 260.66 50.59
9 4 1 145.69 37.83
9 4 2 487.17 60.26
9 4 3 138.14 37.59
9 4 4 554.33 65.35
9 4 5 146.41 37.17
9 4 6 707.62 75.61
9 4 7 572.16 72.11
9 4 8 721.86 79.37
9 4 9 321.06 55.01
9 4 10 -4.7 15.36
9 4 11 181.85 45.37
9 4 12 131.52 38.34
9 4 13 47.68 28.37
9 4 14 96.53 34.79
9 4 15 81.79 38.58
9 4 16 106.87 39.44
9 4 17 46.99 32.51
9 4 18 24.76 27.44
9 4 19 29.56 29.05
9 5 -20 167.05 62.42
9 5 -20 87.65 47.59
9 5 -19 27.34 42.66
9 5 -19 19.63 35.81
9 5 -18 75.57 36
9 5 -18 79.65 39.15
9 5 -17 71.86 34.88
9 5 -17 62.2 43.2
9 5 -16 40.16 23.44
9 5 -16 5.24 23.24
9 5 -15 184.1 46.86
9 5 -15 214.27 56.44
9 5 -14 38.26 30.18
9 5 -14 97.81 37.2
9 5 -13 251.27 54.27
9 5 -12 16.53 23.03
9 5 -11 365.78 60.31
9 5 -11 315.05 45.29
9 5 -10 135.14 34.95
9 5 -10 120.63 28
9 5 -9 219.62 44.23
9 5 -9 187.67 36.29
9 5 -8 73.6 22.6
9 5 -7 219.94 39.59
9 5 -6 646.01 60.9
9 5 -5 253.34 36.02
9 5 -4 1920.56 90.64
9 5 -3 321.77 33.57
9 5 -2 1115.39 95.56
9 5 -1 235.43 48.19
9 5 0 388.51 58.81
9 5 1 655.37 74.7
9 5 2 314.86 55.79
9 5 3 1334 102.74
9 5 4 324.68 57.5
9 5 5 2018.17 129.05
9 5 6 303.37 53.84
9 5 7 166.18 44.42
9 5 8 760.12 81.26
9 5 9 38.77 24.42
9 5 10 256.4 49.3
9 5 11 102.48 32.66
9 5 12 331.68 59.21
9 5 13 163.84 45.27
9 5 14 132.5 43.28
9 5 15 364.96 63.13
9 5 16 1.18 19.46
9 5 17 32.09 23.82
9 5 18 -20.35 32.75
9 5 19 15.98 24.12
9 6 -20 63.77 47.52
9 6 -19 180.73 58.18
9 6 -19 70.65 29.86
9 6 -18 55.38 29.61
9 6 -18 139.75 52.68
9 6 -17 41.32 31.69
9 6 -17 70.22 31.58
9 6 -16 217.1 55.58
9 6 -16 168.34 52.69
9 6 -15 -49.93 38.01
9 6 -15 -3.94 28.3
9 6 -14 237.08 54.41
9 6 -13 36.37 25.34
9 6 -12 341.97 64.37
9 6 -11 83.82 36.29
9 6 -10 228.41 47.59
9 6 -10 199.15 37.52
9 6 -9 266.49 48.84
9 6 -8 78.98 31.75
9 6 -7 414.35 51.76
9 6 -6 90.41 22.5
9 6 -2 362.59 60.87
9 6 -1 270.29 58.35
9 6 0 2197.64 140.28
9 6 1 453.13 77.3
9 6 2 1253.8 105.31
9 6 3 414.54 63.34
9 6 4 117.79 47.21
9 6 5 1591.58 118.14
9 6 6 264.95 57.35
9 6 7 1130.88 102.13
9 6 8 42.49 28.7
9 6 9 448.4 68.2
9 6 10 233.9 50.17
9 6 11 191.75 46.9
9 6 12 435.91 67.87
9 6 13 66.78 30.85
9 6 14 367.39 66.89
9 6 15 19.21 24.26
9 6 16 237.88 56.57
9 6 17 135.28 44.77
9 6 18 188.83 49
9 6 19 120.11 42.93
9 7 -19 50.14 33.32
9 7 -18 26.69 37.4
9 7 -18 -23.39 31.14
9 7 -17 186.59 55.57
9 7 -17 184.38 56.49
9 7 -16 9.12 24.01
9 7 -16 -42.26 37.12
9 7 -15 22.94 25.01
9 7 -14 103.47 40.57
9 7 -13 281.55 61.27
9 7 -12 107.5 33.93
9 7 -11 154.9 40.29
9 7 -10 411.31 60.22
9 7 -1 1455.37 118.62
9 7 0 180.17 50.33
9 7 1 276.36 53.73
9 7 2 983.75 96.9
9 7 3 1013.65 101.25
9 7 4 1124.02 103.33
9 7 5 107 39.25
9 7 6 924.7 93.71
9 7 7 338.04 59.94
9 7 8 236.17 49.58
9 7 9 65.89 30.59
9 7 10 294.38 57.86
9 7 11 202.59 44.68
9 7 12 -10.97 17.51
9 7 13 570.45 80.79
9 7 14 57.51 25.05
9 7 15 250.38 54.96
9 7 16 130.69 43.52
9 7 17 44.97 29.01
9 7 18 129.2 45.75
9 8 -17 18.61 35.15
9 8 -3 41.18 16.09
9 8 -1 144.87 50.73
9 8 0 597.87 79.78
9 8 1 521.86 75.82
9 8 2 162.62 55.43
9 8 3 753.36 88.61
9 8 4 188.68 49.51
9 8 5 335.32 59.39
9 8 6 181.27 48
9 8 7 253.94 52.89
9 8 8 326.08 60.93
9 8 9 56.56 33.21
9 8 10 322.29 61.55
9 8 11 25.52 31.3
9 8 12 144.27 42.42
9 8 13 48.24 31.06
9 8 14 17.56 20.95
9 8 15 110.04 43.64
9 8 16 21.39 24.6
9 8 17 205.45 53.48
9 8 18 -15.4 19.2
9 9 -3 382.23 45.8
9 9 -1 98.93 49.45
9 9 0 1304.79 116.94
9 9 1 388.66 74.99
9 9 2 1134.33 110.97
9 9 3 220.97 63.66
9 9 4 212.01 50.45
9 9 5 298.51 59.9
9 9 6 148.86 47.57
9 9 7 470.82 75.43
9 9 8 16 34.22
9 9 9 419.22 71.59
9 9 10 36.17 24.15
9 9 11 171.56 50.35
9 9 12 92.91 38.57
9 9 13 207.2 53.37
9 9 14 286.67 59.61
9 9 15 23.2 32.1
9 9 16 187.22 53.32
9 9 17 57.03 39.72
9 10 -2 226.87 40.33
9 10 -1 502.75 78.07
9 10 0 50.24 40.48
9 10 1 171.25 49.15
9 10 2 205.93 51.71
9 10 3 267.22 63.55
9 10 4 630.22 85.02
9 10 5 209.9 52.59
9 10 6 458.58 71.58
9 10 7 70.01 42.27
9 10 8 322.45 66.79
9 10 9 125.75 44.45
9 10 10 302.04 64.88
9 10 11 198.91 52.37
9 10 12 10.21 20.63
9 10 13 457.37 78.13
9 10 14 38.12 28.56
9 10 15 278.28 61.34
9 10 16 124.81 46.24
9 11 -2 200.93 38.49
9 11 -1 217.71 52.7
9 11 0 63.71 28.83
9 11 1 26.35 23.25
9 11 2 38.9 28.06
9 11 3 55.85 31.77
9 11 4 229.05 58.84
9 11 5 175.22 52.86
9 11 6 92.57 42.52
9 11 7 327.99 66.57
9 11 8 201.48 52.91
9 11 9 109.89 45.27
9 11 10 202.94 51.5
9 11 11 72.42 38.92
9 11 12 280.8 63.59
9 11 13 40.21 32.32
9 11 14 237.95 59
9 11 15 179.7 50.5
9 12 -1 457.46 60.74
9 12 -1 519.65 85.08
9 12 0 499.46 84.38
9 12 1 560.54 90.44
9 12 2 1150.55 123.09
9 12 3 361.7 78.94
9 12 4 577.49 91.22
9 12 5 571.79 90.39
9 12 6 370.68 75.21
9 12 7 445.1 78.74
9 12 8 186.03 56.47
9 12 9 266.67 62.93
9 12 10 47.67 33.82
9 12 11 127.49 43.28
9 12 12 87.64 40.87
9 12 13 107.99 43.64
9 13 -1 295.95 68.04
9 13 -1 181.37 40.5
9 13 0 49.82 29.47
9 13 0 121.46 47.21
9 13 1 257.53 59.97
9 13 2 80.07 40.84
9 13 3 177.03 51.22
9 13 4 182.49 57.77
9 13 5 321.12 68.25
9 13 6 151.95 53.77
9 13 7 51.84 42.73
9 13 8 140.71 50.37
9 13 9 160.87 54.49
9 13 10 284.9 66.42
9 13 11 214.53 56.41
9 14 0 166.35 44.13
9 14 0 135.55 46.33
9 14 1 131.12 39.87
9 14 1 104.66 50.05
9 14 2 208.78 62.27
9 14 3 144.67 52.41
9 14 4 217.72 58.78
9 14 5 207.55 60.57
9 14 6 80.54 44.24
9 14 7 307.9 68.62
9 15 1 107.63 41.95
9 15 2 155.87 45.76
10 -9 -8 97.47 37.87
10 -9 -7 33.41 30.31
10 -9 -6 83.97 40.12
10 -9 -5 380.9 71.75
10 -9 -4 101.81 42.95
10 -9 -3 369.34 72.46
10 -9 -2 113.28 47.35
10 -9 -1 324.45 68.17
10 -9 0 267.38 63.39
10 -9 1 192.01 53.47
10 -9 2 134.04 47.66
10 -8 -11 232.7 66.52
10 -8 -10 82.49 38.99
10 -8 -10 65.44 47.44
10 -8 -9 46.99 31.06
10 -8 -9 178.06 59.69
10 -8 -8 79.96 39.96
10 -8 -8 154.18 56.55
10 -8 -7 58.35 35.54
10 -8 -7 116.39 52.46
10 -8 -6 325.45 67.73
10 -8 -5 53.05 40.1
10 -8 -4 110.18 43.07
10 -8 -3 89.15 38.69
10 -8 -2 129.49 43.67
10 -8 -1 73.64 36.39
10 -8 0 12.67 23.91
10 -8 1 219.27 55.69
10 -8 2 12.25 29.3
10 -8 3 262.5 59.44
10 -8 4 47.2 28.83
10 -8 5 105.75 48.94
10 -8 6 146.85 53.79
10 -8 7 -15.05 32.82
10 -8 11 -0.69 27.86
10 -7 -14 34.2 28.13
10 -7 -13 -1.94 27.66
10 -7 -12 170.65 57.1
10 -7 -11 171.11 52.7
10 -7 -11 154.93 58
10 -7 -10 274.94 61.16
10 -7 -10 284.23 72.76
10 -7 -9 151.68 48.33
10 -7 -9 165.11 58.78
10 -7 -8 187.84 50.26
10 -7 -8 226.02 60.72
10 -7 -7 217.64 54.14
10 -7 -7 171.91 57.03
10 -7 -6 53.98 30.85
10 -7 -6 56.4 41.55
10 -7 -5 105.01 41.81
10 -7 -4 13.79 20.54
10 -7 -3 157.7 44.7
10 -7 -2 413.83 69.12
10 -7 -1 99.08 42.41
10 -7 0 166.54 46.79
10 -7 1 192.09 49.98
10 -7 2 81.54 37.15
10 -7 3 246.64 57.2
10 -7 4 70.01 36.23
10 -7 5 337.22 71.3
10 -7 6 18.32 22.84
10 -7 7 226.85 45.79
10 -7 8 -13.72 18.7
10 -7 9 149.95 41.15
10 -7 10 73.05 32.44
10 -7 11 29.93 21.38
10 -7 12 119.92 42.36
10 -6 -15 110.1 53.69
10 -6 -14 -8.15 27.44
10 -6 -13 35.84 23.68
10 -6 -12 87.36 35.84
10 -6 -11 50.48 34.06
10 -6 -11 71.69 39.26
10 -6 -10 192.65 51.27
10 -6 -10 208.61 55.02
10 -6 -9 22.28 17.66
10 -6 -9 66.61 40.51
10 -6 -8 193.53 48.51
10 -6 -8 212.65 58.15
10 -6 -7 167.96 44.29
10 -6 -7 165.34 51.08
10 -6 -6 16.78 22.88
10 -6 -6 78.57 44.97
10 -6 -5 369.72 65.25
10 -6 -5 388.86 73.11
10 -6 -4 73.29 34.06
10 -6 -3 139.64 44.24
10 -6 -2 39.06 30.88
10 -6 -1 154.56 46.42
10 -6 0 159.05 45.39
10 -6 1 253.93 54.15
10 -6 2 53.16 31.91
10 -6 3 134.2 40.97
10 -6 3 214.74 54.51
10 -6 4 82.96 34.69
10 -6 4 56.25 27.32
10 -6 4 55.67 22.49
10 -6 5 38.73 26.12
10 -6 5 58.71 26.39
10 -6 6 140.35 41.21
10 -6 6 112.88 32.04
10 -6 7 -10.57 17.57
10 -6 7 -23.02 26.98
10 -6 8 37.73 21.53
10 -6 8 101.36 31.35
10 -6 9 92.16 34.32
10 -6 9 65.29 31.47
10 -6 10 6.49 20.68
10 -6 11 47.12 26.48
10 -6 12 82.98 34.23
10 -6 13 61.25 37.53
10 -5 -16 87.09 51.79
10 -5 -15 -40.95 39.46
10 -5 -14 10.85 28.44
10 -5 -13 260.43 65.53
10 -5 -12 15.75 30.92
10 -5 -11 570.96 79.88
10 -5 -11 548.36 88.56
10 -5 -10 24.59 22.77
10 -5 -10 73.42 35.31
10 -5 -9 323.47 60.2
10 -5 -9 375.33 75.7
10 -5 -8 206.52 50.25
10 -5 -8 189.52 55.32
10 -5 -7 341.81 59.5
10 -5 -7 382.16 75.94
10 -5 -6 336.63 59.88
10 -5 -6 489.2 81.87
10 -5 -5 29.2 23.74
10 -5 -5 44.09 38.6
10 -5 -4 588.06 78.07
10 -5 -4 733.18 94.81
10 -5 -3 188.04 45.94
10 -5 -2 325.74 56.68
10 -5 -1 142.91 39
10 -5 -1 205.4 51.93
10 -5 0 332.88 53.97
10 -5 0 360.84 62.88
10 -5 1 264.63 52.72
10 -5 1 197.1 47.61
10 -5 2 127.41 38.39
10 -5 2 201.76 51.27
10 -5 3 480.61 66.75
10 -5 4 86.79 35.35
10 -5 5 320.04 55.11
10 -5 6 75.87 31.79
10 -5 7 184.99 45
10 -5 8 273.44 51.91
10 -5 9 122.97 36.06
10 -5 9 74.47 24.54
10 -5 10 151.77 39.89
10 -5 10 184.85 43.42
10 -5 11 -31.78 24.04
10 -5 12 48.69 31.05
10 -5 13 26.9 26.17
10 -5 14 45.5 29.09
10 -4 -17 90.79 44.09
10 -4 -16 135.48 46.65
10 -4 -15 40.54 29.3
10 -4 -14 214.04 60.96
10 -4 -13 -11.65 27.8
10 -4 -12 388.5 74.13
10 -4 -11 131.82 40.79
10 -4 -11 85.77 37.4
10 -4 -10 134.75 40.11
10 -4 -10 118.42 41.86
10 -4 -9 174.85 42.13
10 -4 -9 243.66 59.3
10 -4 -8 94.9 35.81
10 -4 -8 100.12 41.67
10 -4 -7 34.17 26.96
10 -4 -7 27.31 26.86
10 -4 -6 140.61 42.99
10 -4 -6 81.3 37.67
10 -4 -5 241.6 49.96
10 -4 -5 212.14 53.15
10 -4 -4 -48.66 22.17
10 -4 -4 20.68 21.56
10 -4 -4 19.63 31.11
10 -4 -3 74.07 28.21
10 -4 -3 109.08 33.82
10 -4 -2 244.49 49.95
10 -4 -2 131.63 38.97
10 -4 -1 47.11 26.99
10 -4 -1 58.76 29.18
10 -4 0 148.1 39.46
10 -4 0 68.98 29.83
10 -4 1 -18 18.63
10 -4 2 200.69 43.46
10 -4 3 175.06 39.68
10 -4 4 31.79 25.6
10 -4 5 189.01 42.67
10 -4 5 148.46 33.58
10 -4 6 5.2 17.46
10 -4 6 10.75 16.28
10 -4 7 144.79 37.17
10 -4 7 117.01 33.59
10 -4 8 -6.66 21.48
10 -4 8 18.23 23.86
10 -4 9 199.44 45.49
10 -4 9 235.33 46.62
10 -4 10 18.53 22.06
10 -4 10 47.39 22.38
10 -4 11 256.01 48.91
10 -4 11 207.02 47.76
10 -4 12 126.82 39.45
10 -4 12 43.15 31.4
10 -4 13 105.42 36.99
10 -4 14 19.85 27.96
10 -4 15 -53.86 35.96
10 -4 16 101.95 40.03
10 -3 -18 5.58 27.51
10 -3 -17 84.25 42.33
10 -3 -16 -1.1 24.6
10 -3 -15 272.98 65.9
10 -3 -14 70.06 40.09
10 -3 -13 203.27 57.28
10 -3 -12 136.41 44.14
10 -3 -11 104.68 35
10 -3 -11 81.37 36.4
10 -3 -10 134.03 35.65
10 -3 -10 188.44 51.2
10 -3 -9 23.45 22.41
10 -3 -9 38.78 39.24
10 -3 -9 113.71 39.03
10 -3 -8 172.82 42.02
10 -3 -8 182.66 46.68
10 -3 -8 205.38 52.79
10 -3 -7 33.66 25.6
10 -3 -7 38.3 23.27
10 -3 -7 -2.23 26
10 -3 -6 214.73 47.68
10 -3 -6 193.23 43.62
10 -3 -6 203.03 51.56
10 -3 -6 162.37 41.48
10 -3 -5 -5.36 24.1
10 -3 -5 32.02 22.27
10 -3 -5 64.55 37.56
10 -3 -5 49.44 31.29
10 -3 -4 220.08 44.8
10 -3 -4 302.26 51.02
10 -3 -4 312.74 57.62
10 -3 -4 140.9 40.3
10 -3 -3 245.68 47.78
10 -3 -3 156.47 38.15
10 -3 -3 212.96 49.23
10 -3 -3 184.78 44.44
10 -3 -2 71.96 32.68
10 -3 -2 35.02 22.22
10 -3 -2 35.2 24.16
10 -3 -1 500.12 63.81
10 -3 -1 479.63 66.46
10 -3 -1 369.34 56.72
10 -3 0 77.36 30.67
10 -3 0 39 28.26
10 -3 1 450.99 64.95
10 -3 1 338.87 39.39
10 -3 1 347.8 52.52
10 -3 2 138.19 30.12
10 -3 2 204.24 46.78
10 -3 2 141.28 35.21
10 -3 3 102.12 23.24
10 -3 3 106.82 35.61
10 -3 3 67.14 24.84
10 -3 4 140.91 29.4
10 -3 4 185.77 42.84
10 -3 4 139.78 34.61
10 -3 5 25.39 17.21
10 -3 5 3.06 13.88
10 -3 6 293.38 45.94
10 -3 6 290.82 51.41
10 -3 7 19.73 19.47
10 -3 7 45.28 25.49
10 -3 8 118.56 34.09
10 -3 8 111.54 33.27
10 -3 9 3.01 15.86
10 -3 9 65.88 30.53
10 -3 10 128.72 33.53
10 -3 10 146.49 38.29
10 -3 11 64.98 24.72
10 -3 11 27.73 24.22
10 -3 12 74.54 30.83
10 -3 12 85.47 34.27
10 -3 13 170.34 41.88
10 -3 13 109.43 36.58
10 -3 14 10.9 29.69
10 -3 15 59.02 32.72
10 -3 16 7.13 19.62
10 -3 17 -13.87 23.24
10 -2 -19 93.11 44.56
10 -2 -18 361.25 77.53
10 -2 -17 68.57 40.72
10 -2 -16 449.18 81.93
10 -2 -15 45.48 26.98
10 -2 -14 150.34 46.21
10 -2 -13 163.48 47.21
10 -2 -13 216.95 54.44
10 -2 -12 87.17 36.5
10 -2 -12 66.35 36.08
10 -2 -11 636.43 73.25
10 -2 -11 462.35 75.87
10 -2 -11 469.21 75.25
10 -2 -10 -8.05 18.32
10 -2 -10 4.21 29.2
10 -2 -10 -35.58 22.96
10 -2 -9 547.88 66.44
10 -2 -9 491.87 74.57
10 -2 -9 465.38 71.88
10 -2 -8 137.87 37.41
10 -2 -8 161.03 37.15
10 -2 -8 165.24 45.52
10 -2 -8 167.5 46.23
10 -2 -7 231.43 46.71
10 -2 -7 289.71 49.14
10 -2 -7 375.26 64.56
10 -2 -7 205.29 47.28
10 -2 -6 106.81 33.92
10 -2 -6 141.57 35.5
10 -2 -6 102.26 35.71
10 -2 -6 129.51 39.38
10 -2 -5 259.14 47.53
10 -2 -5 270.28 46.42
10 -2 -5 281.91 54.26
10 -2 -5 230.02 49.06
10 -2 -4 602.07 72.88
10 -2 -4 503.06 62.91
10 -2 -4 527.9 69.75
10 -2 -4 451.77 65.13
10 -2 -3 70.81 30.57
10 -2 -3 28.49 23.95
10 -2 -3 64.03 33.1
10 -2 -3 79.55 31.18
10 -2 -2 1207.9 68.02
10 -2 -2 1186.77 100.76
10 -2 -2 1097.27 95.54
10 -2 -2 960.14 90.71
10 -2 -1 281.59 52.47
10 -2 -1 267.57 35.39
10 -2 -1 209.11 46.45
10 -2 0 1040.9 92.87
10 -2 0 966.57 87.71
10 -2 0 1128.99 70.02
10 -2 1 421.96 61.89
10 -2 1 394.59 44.93
10 -2 1 359.74 53.52
10 -2 2 367.13 57.54
10 -2 2 420.25 47.14
10 -2 2 322.55 49.22
10 -2 3 596.22 70.74
10 -2 3 544.76 55.1
10 -2 3 593.91 64.85
10 -2 4 7.55 17.91
10 -2 4 29.21 16.98
10 -2 4 4.6 21.05
10 -2 5 354.62 53.45
10 -2 5 323.75 45.55
10 -2 5 364.87 49.99
10 -2 6 22.58 19.51
10 -2 6 41.77 23.61
10 -2 6 24.46 17.69
10 -2 7 265.5 45.98
10 -2 7 186.41 43.52
10 -2 8 81.84 24.83
10 -2 9 271.94 46.58
10 -2 10 253.47 48.21
10 -2 11 70.46 30.33
10 -2 12 242.08 48.76
10 -2 13 105.97 36.12
10 -2 14 250.72 55.3
10 -2 15 159.51 45.29
10 -2 16 190.59 46.63
10 -2 17 5.94 24.21
10 -1 -19 181.19 57.4
10 -1 -18 -26.59 31.8
10 -1 -17 151.94 49.2
10 -1 -16 54.92 39.23
10 -1 -16 67.29 40.43
10 -1 -15 63.51 32.07
10 -1 -15 -5.3 21.83
10 -1 -14 195.54 53.61
10 -1 -14 224.8 60.2
10 -1 -13 55.27 33.92
10 -1 -13 39.91 31.3
10 -1 -12 325.34 64.71
10 -1 -12 267.95 56.69
10 -1 -11 98.21 31.98
10 -1 -11 98.64 36.01
10 -1 -11 120.25 38.18
10 -1 -10 315.71 48.53
10 -1 -10 213.38 50.46
10 -1 -10 262.46 53.84
10 -1 -9 357.57 56.83
10 -1 -9 361.88 54.32
10 -1 -9 378.68 61.99
10 -1 -9 397.07 69.62
10 -1 -8 93.21 30.22
10 -1 -8 121.21 30.55
10 -1 -8 88.6 31.9
10 -1 -8 85.39 33.5
10 -1 -7 297.87 55.36
10 -1 -7 328.61 50.43
10 -1 -7 285.52 53.89
10 -1 -7 333.54 58.86
10 -1 -6 203.06 31
10 -1 -6 250.75 50.78
10 -1 -6 214.21 40.63
10 -1 -6 243.93 49.37
10 -1 -6 197.26 47.17
10 -1 -5 549.97 69.73
10 -1 -5 529.76 62.82
10 -1 -5 555.97 48.6
10 -1 -5 458.06 66.41
10 -1 -5 485.84 69.6
10 -1 -4 75.29 32.81
10 -1 -4 80.94 28.35
10 -1 -4 14.1 18.7
10 -1 -4 42.3 26.74
10 -1 -3 1159.66 98.85
10 -1 -3 1193.95 71.01
10 -1 -3 1132.01 92.57
10 -1 -3 1202.81 99.65
10 -1 -3 1046.29 93.66
10 -1 -2 499.95 66.08
10 -1 -2 534.4 50.78
10 -1 -2 434.76 60.8
10 -1 -2 571.36 69.01
10 -1 -1 503.88 47.91
10 -1 -1 430.43 59.02
10 -1 0 822.89 79.67
10 -1 0 744.92 60.23
10 -1 0 643.11 69.71
10 -1 1 519.96 67.49
10 -1 1 425.1 56.89
10 -1 2 1136.33 93.33
10 -1 2 993.76 81.4
10 -1 2 1008.39 74.19
10 -1 3 45.35 22
10 -1 3 56.76 22.43
10 -1 4 433.68 53.26
10 -1 4 446.45 52.1
10 -1 5 166.38 33.51
10 -1 5 187.59 38.69
10 -1 6 99.97 26.71
10 -1 6 159.88 33.13
10 -1 7 162.19 33.3
10 -1 7 110.49 31.8
10 -1 8 281.7 47.54
10 -1 9 255.2 46.07
10 -1 10 19.6 22.52
10 -1 11 343.04 55.26
10 -1 12 26.75 18.71
10 -1 13 120.84 37.24
10 -1 14 9.14 22.04
10 -1 15 5.48 24.93
10 -1 16 145.74 44.57
10 -1 17 -23.22 18.8
10 0 -19 -60.33 43.92
10 0 -18 91.15 41.44
10 0 -18 136.17 43.91
10 0 -17 157.82 54.53
10 0 -17 155.75 50.29
10 0 -16 142.3 53.85
10 0 -16 105.02 42.93
10 0 -15 213.91 53.55
10 0 -15 259.1 58.45
10 0 -14 79.42 31.17
10 0 -14 93.9 37.03
10 0 -13 178.57 45.48
10 0 -13 179.09 51.04
10 0 -12 22.86 23.84
10 0 -12 16.38 25.4
10 0 -11 136.1 47.8
10 0 -11 223.27 54.26
10 0 -10 209.1 42.07
10 0 -10 220.78 38.59
10 0 -10 292.1 56.79
10 0 -10 275.15 55.49
10 0 -9 55.83 29.77
10 0 -9 101.41 33.73
10 0 -9 99.3 28.44
10 0 -9 69.96 23.04
10 0 -9 119.81 35.99
10 0 -8 242.41 53.86
10 0 -8 221.56 42.54
10 0 -8 242.16 40.19
10 0 -8 259.5 38.61
10 0 -8 208.71 46.05
10 0 -7 -19.47 21.25
10 0 -7 3.25 18.53
10 0 -7 47.29 22.63
10 0 -7 11.47 16.77
10 0 -7 8.85 18.62
10 0 -6 116.64 35.33
10 0 -6 231.72 45.4
10 0 -6 178.89 36.58
10 0 -6 186.65 33.71
10 0 -6 200.53 43.03
10 0 -5 33.75 30.6
10 0 -5 34.37 24.65
10 0 -5 72.8 23.81
10 0 -5 10.55 14.37
10 0 -5 66.15 28.28
10 0 -4 333.3 53.48
10 0 -4 359.98 54.16
10 0 -4 446.58 55.42
10 0 -4 448.85 47.9
10 0 -4 322.71 48.64
10 0 -3 207.13 35.32
10 0 -3 248.95 49.21
10 0 -3 225.38 44.87
10 0 -3 144.21 31.99
10 0 -3 131.74 33.15
10 0 -2 250.27 45.65
10 0 -2 205.77 42.28
10 0 -2 280.64 40.46
10 0 -2 184.02 40.18
10 0 -1 688.64 71.71
10 0 -1 755.68 61.71
10 0 0 94.32 33.28
10 0 0 170.45 33.95
10 0 1 675.57 59.01
10 0 2 182.58 32.3
10 0 3 289.38 43.3
10 0 4 258.08 40.64
10 0 5 54.19 24.66
10 0 6 176.4 38.31
10 0 7 43.68 20.8
10 0 8 325.61 50.34
10 0 9 13.54 15.9
10 0 10 147.27 40.38
10 0 11 36.02 25.45
10 0 12 73.33 29.7
10 0 13 377.03 59.19
10 0 14 41.23 23.12
10 0 15 285.26 56.55
10 0 16 -8.95 24.34
10 0 17 108.15 41.23
10 0 18 21.71 27.16
10 1 -20 -70.98 50.4
10 1 -19 23.7 31.48
10 1 -19 13.99 22.54
10 1 -18 26.83 25.73
10 1 -18 31.18 29.84
10 1 -17 47.44 41.13
10 1 -17 30.15 31.82
10 1 -16 178.63 46.57
10 1 -16 173.48 57.85
10 1 -15 18.36 26.76
10 1 -15 24.97 27.59
10 1 -14 134.82 45.02
10 1 -14 158.1 51.91
10 1 -13 154.71 46.22
10 1 -13 148.43 50.77
10 1 -12 185.24 46.86
10 1 -12 171.01 47.44
10 1 -11 384.24 70.18
10 1 -11 316.27 58.61
10 1 -11 411.18 60.99
10 1 -10 279.13 52.85
10 1 -10 320.89 62.03
10 1 -10 299.91 51.98
10 1 -9 449.59 69.55
10 1 -9 430.99 59.62
10 1 -9 516.72 55.25
10 1 -9 452.92 63.89
10 1 -8 57.24 30.5
10 1 -8 54.44 26.64
10 1 -8 52.97 19.65
10 1 -8 23.26 18.53
10 1 -7 622.83 72
10 1 -7 693.77 63.4
10 1 -7 744.41 69.25
10 1 -7 667.14 71.87
10 1 -7 685.53 82.33
10 1 -6 298.89 54.14
10 1 -6 259.02 47.91
10 1 -6 282.45 46.84
10 1 -6 224.61 37.2
10 1 -6 204.1 42.42
10 1 -5 231.15 47.42
10 1 -5 355.16 56.97
10 1 -5 437.63 53.8
10 1 -5 323.2 42.92
10 1 -5 315.69 48.84
10 1 -4 648.49 72.27
10 1 -4 798.54 69.13
10 1 -4 652.61 63.85
10 1 -4 577.15 64.5
10 1 -3 70.68 28.23
10 1 -3 156.39 34.56
10 1 -3 108.53 23.96
10 1 -2 352.35 46.56
10 1 -2 500.51 53.94
10 1 -1 87.5 28.24
10 1 0 205.08 34.72
10 1 1 107.6 31.97
10 1 2 342.92 45.89
10 1 3 405.46 51.8
10 1 4 301.04 47.17
10 1 5 496.63 58.94
10 1 6 46.16 24.14
10 1 7 602.53 69.95
10 1 8 182.64 38.5
10 1 9 272.08 49.85
10 1 10 475.21 64.26
10 1 11 256.76 51.27
10 1 12 20.13 21.95
10 1 13 -36.73 28.21
10 1 14 187.7 47.03
10 1 15 95.6 35.23
10 1 16 106.08 38.82
10 1 17 14.23 23.2
10 1 18 -31.39 27.93
10 2 -20 -43.12 36.44
10 2 -19 63.51 41.5
10 2 -19 -25.54 29.88
10 2 -18 -10.5 25.75
10 2 -18 45.54 39.49
10 2 -17 136.64 45.59
10 2 -17 65.7 37.43
10 2 -16 3.01 20.81
10 2 -16 -14.12 26.04
10 2 -15 64.51 29.69
10 2 -15 163.64 47.91
10 2 -14 271.24 62.55
10 2 -14 311.85 68.36
10 2 -13 141.32 47.81
10 2 -13 267.74 56.47
10 2 -12 234.26 60.38
10 2 -12 298.07 58.42
10 2 -12 352.75 52.3
10 2 -11 17.66 20.3
10 2 -11 -20.7 25.81
10 2 -11 8.63 19.31
10 2 -10 242.62 50.76
10 2 -10 263.13 51.39
10 2 -10 254.63 46.22
10 2 -9 470.01 63.71
10 2 -9 591.15 72.27
10 2 -9 568.35 77.24
10 2 -8 210.52 41.88
10 2 -8 200.7 44.15
10 2 -8 275.79 48.61
10 2 -7 656.68 72.49
10 2 -7 631.5 56.97
10 2 -7 602.07 66.77
10 2 -6 41.04 24.4
10 2 -6 46.4 19.62
10 2 -6 56.46 28.5
10 2 -6 35.26 20.97
10 2 -5 538.79 66.02
10 2 -5 479.08 50.08
10 2 -5 573.31 64.12
10 2 -5 440.89 53.92
10 2 -4 100.15 39.25
10 2 -4 43.76 20.16
10 2 -3 1168.14 88.25
10 2 -3 979.44 75.1
10 2 -2 168.02 43.8
10 2 -2 56.15 21.29
10 2 -1 329.13 45.83
10 2 0 118.54 31.36
10 2 1 160.36 33.3
10 2 2 468.81 55.14
10 2 3 155.4 40.02
10 2 4 604.19 65.54
10 2 5 22.72 19.96
10 2 6 460.97 59.4
10 2 7 36.03 24.5
10 2 8 508.82 67
10 2 9 9.96 22.42
10 2 10 75.57 29.71
10 2 11 466.96 66.83
10 2 12 25.9 23
10 2 13 421.19 65.14
10 2 14 39.19 26.59
10 2 15 92.49 34.4
10 2 16 34.59 21.18
10 2 17 44.03 31.48
10 2 18 117.08 41.99
10 3 -20 46.37 37.64
10 3 -19 51.99 44.03
10 3 -19 0.92 24.12
10 3 -18 99.73 43.05
10 3 -18 85.85 40.18
10 3 -17 -54.33 37.99
10 3 -17 -15.33 26.83
10 3 -16 71.65 37.8
10 3 -16 124.32 47.79
10 3 -15 14.25 24.54
10 3 -15 -45.77 36.79
10 3 -14 92.34 39.65
10 3 -14 21.16 24.78
10 3 -13 120.94 42.2
10 3 -13 53.18 30.1
10 3 -13 68.1 28.97
10 3 -12 3.16 23.37
10 3 -12 -12.57 23.52
10 3 -12 4.54 21.65
10 3 -11 137.95 37.59
10 3 -11 253.27 54.08
10 3 -11 142.27 33.51
10 3 -10 87.06 32.13
10 3 -10 65.87 36.39
10 3 -10 50.55 26.52
10 3 -9 291.9 49.53
10 3 -9 329.93 52.05
10 3 -8 23.29 18.44
10 3 -8 15.3 16.89
10 3 -7 63.95 26.36
10 3 -7 46.3 22.43
10 3 -6 286.69 36.39
10 3 -6 280.82 45.43
10 3 -5 8.26 10.73
10 3 -5 -4.54 15.32
10 3 -4 1300.02 100.26
10 3 -4 988.91 73.38
10 3 -3 371.2 57.89
10 3 -3 184.46 30.93
10 3 -2 898.38 83.93
10 3 -1 965.73 86.64
10 3 0 499.07 62.6
10 3 1 961.28 83.31
10 3 2 133.51 41.38
10 3 3 1416.19 102.82
10 3 4 376.26 56.4
10 3 5 812.99 79.37
10 3 6 203.7 41.91
10 3 7 0.43 17.57
10 3 8 514.44 66.77
10 3 9 1.92 16.64
10 3 10 177.39 43.2
10 3 11 51.09 26.14
10 3 12 65.54 30.79
10 3 13 55.39 31.64
10 3 14 11.65 20.03
10 3 15 173.4 49.05
10 3 16 -7.71 18.23
10 3 17 154.58 47.94
10 3 18 38.15 25.18
10 4 -20 26.86 33.68
10 4 -19 128.82 51.02
10 4 -19 52.18 42.9
10 4 -18 21.77 27.88
10 4 -18 126.57 50.49
10 4 -17 64.39 41.3
10 4 -17 32.01 24.33
10 4 -16 361.34 76.82
10 4 -16 383.97 77.58
10 4 -15 23.1 31.24
10 4 -15 -30.23 25.06
10 4 -14 453.57 76.89
10 4 -14 428.11 75.28
10 4 -13 78.77 40.62
10 4 -13 79.1 35.45
10 4 -12 161.85 41.97
10 4 -12 89.59 42.35
10 4 -12 65.53 28.27
10 4 -11 94.71 35.53
10 4 -11 90.74 28.11
10 4 -10 103.4 33.39
10 4 -10 118.99 33.06
10 4 -9 119.79 33.89
10 4 -9 111.47 31.07
10 4 -8 -5.43 15.16
10 4 -8 35.25 17.93
10 4 -7 383.64 50.35
10 4 -4 348.43 58.03
10 4 -3 468.13 61.5
10 4 -2 318.33 55.67
10 4 -1 514.17 65.42
10 4 0 442.08 60.95
10 4 1 247.84 50.09
10 4 2 596 69.54
10 4 3 530.56 65.13
10 4 4 374.24 57.64
10 4 5 486.55 63.22
10 4 6 536.73 68.74
10 4 7 296.98 52.61
10 4 8 9.84 18.18
10 4 9 240.8 49.73
10 4 10 111.48 36.01
10 4 11 197.86 47.09
10 4 12 124.62 40.47
10 4 13 144.58 41.57
10 4 14 297.66 57.42
10 4 15 49.42 28.92
10 4 16 182.87 50.45
10 4 17 -35.42 28.17
10 4 18 84.58 32.36
10 5 -19 76.28 43.74
10 5 -19 37.6 30.44
10 5 -18 101.4 45.88
10 5 -18 25.73 34.02
10 5 -17 27.35 33.67
10 5 -17 34.83 34.88
10 5 -16 34.82 23.39
10 5 -16 45.23 23.02
10 5 -15 197.03 56.41
10 5 -15 294.23 66.33
10 5 -14 26.52 26.94
10 5 -14 16.56 27.52
10 5 -13 221.25 50.55
10 5 -12 297.89 56.37
10 5 -11 189.99 46.32
10 5 -11 196.73 39.75
10 5 -10 357.77 53
10 5 -9 0.31 19.25
10 5 -4 154.61 38.3
10 5 -3 280.72 49.27
10 5 -2 153.92 46.24
10 5 -1 1136.37 101.45
10 5 0 234.68 54.69
10 5 1 1006.99 95.6
10 5 2 794.05 85.64
10 5 3 188.12 47.62
10 5 4 328.15 56.19
10 5 5 201.69 46.63
10 5 6 514.92 68.96
10 5 7 321.37 56.87
10 5 8 881.05 92.51
10 5 9 268.76 55.27
10 5 10 152.39 44.07
10 5 11 648.46 83.56
10 5 12 17.9 27.02
10 5 13 379.31 67.89
10 5 14 10.44 21.61
10 5 15 162.2 47.38
10 5 16 142.5 41.54
10 5 17 -2.7 29.19
10 5 18 169.36 52.74
10 6 -18 110.3 45.11
10 6 -17 41.89 27.04
10 6 -16 253.64 61.65
10 6 -15 153.03 49.69
10 6 -10 5.53 16.16
10 6 -3 130.47 49.61
10 6 -2 796.4 87.48
10 6 -1 286.81 60.81
10 6 0 566.45 76.5
10 6 1 588.69 76.3
10 6 2 214.62 49.92
10 6 3 1111.22 102.21
10 6 4 151.84 46.58
10 6 5 1119.01 103.62
10 6 6 52.49 34.44
10 6 7 179.3 43.99
10 6 8 98.56 38.42
10 6 9 113.94 38.85
10 6 10 316.97 60.39
10 6 11 36.29 24.81
10 6 12 351.28 62.79
10 6 13 38.03 25.59
10 6 14 193.36 49.94
10 6 15 222.3 54.12
10 6 16 28.6 31.9
10 6 17 245.9 59.53
10 7 -17 21.25 35.51
10 7 -16 47.22 38.13
10 7 -3 364.18 66.68
10 7 -2 214.64 52.74
10 7 -1 199.28 52
10 7 0 1148.12 108.76
10 7 1 401.94 71.94
10 7 2 1042.84 102.35
10 7 3 80.95 41.35
10 7 4 316.14 60.83
10 7 5 198.03 51.16
10 7 6 131.69 47.3
10 7 7 377.39 65.48
10 7 8 24.92 28.69
10 7 9 512.64 75.96
10 7 10 25.77 20.14
10 7 11 253.57 53.75
10 7 12 71.04 34.28
10 7 13 160.19 46.55
10 7 14 141.4 44.31
10 7 15 49.25 27.05
10 7 16 331.37 65.6
10 7 17 18.02 27.6
10 8 -17 45.32 37.17
10 8 -2 154.72 43.06
10 8 -1 181.43 48.2
10 8 0 112.31 43.94
10 8 1 416.72 73.47
10 8 2 378.67 66.84
10 8 3 255.9 57.48
10 8 4 322.99 62.37
10 8 5 62.23 34.84
10 8 6 421.49 70.32
10 8 7 111.86 41.96
10 8 8 379.19 69.02
10 8 9 91.25 41.49
10 8 10 176.5 49.86
10 8 11 215.82 53.14
10 8 12 27.62 30.84
10 8 13 457.7 75.99
10 8 14 50.88 36.52
10 8 15 270.58 64.23
10 8 16 14.6 25.08
10 9 -2 316.59 63.15
10 9 -1 78.08 38.39
10 9 0 450.7 74.84
10 9 1 161.47 56.3
10 9 2 248.11 62.11
10 9 3 492.98 76.8
10 9 4 142.83 53.97
10 9 5 318.34 61.77
10 9 6 84.02 36.92
10 9 7 85.42 35.37
10 9 8 62.83 36.28
10 9 9 74.72 34.76
10 9 10 128.05 46.46
10 9 11 51.26 28.8
10 9 12 399.14 74.54
10 9 13 8.55 22.96
10 9 14 225.87 55.42
10 9 15 38.45 30.99
10 10 -2 113.4 49.5
10 10 -1 377.17 72.47
10 10 0 339.5 71
10 10 1 282.38 63.11
10 10 2 406.6 75.53
10 10 3 184.22 55.62
10 10 4 554.85 86.64
10 10 5 221.35 64.82
10 10 6 447.48 77.79
10 10 7 348.16 68.47
10 10 8 146.36 46.59
10 10 9 245.22 59.67
10 10 10 15.58 31.25
10 10 11 298.92 62.39
10 10 12 53.41 29.65
10 10 13 111.07 40.79
10 10 14 178.07 55.86
10 11 -2 320.05 70.75
10 11 -1 426.4 80.79
10 11 0 324.64 73.84
10 11 1 947.17 114.8
10 11 2 355.09 77.88
10 11 3 787.28 102.97
10 11 4 544.81 89.74
10 11 5 294.85 66.88
10 11 6 406.81 75.83
10 11 7 106.5 50.37
10 11 8 386.43 74.76
10 11 9 71.52 40.04
10 11 10 327.11 68.35
10 11 11 176.19 50.56
10 11 12 184.35 51.31
10 11 13 239.83 60.23
10 12 -2 216.07 60.24
10 12 -1 137.79 53.12
10 12 0 339.67 71.91
10 12 1 111 45.77
10 12 2 265.21 65.48
10 12 3 209.54 61.51
10 12 4 150.36 57.11
10 12 5 203.8 54.61
10 12 6 21.4 28.37
10 12 7 169.18 50.21
10 12 8 127.78 50.45
10 12 9 124.05 47.11
10 12 10 158.06 49.7
10 12 11 143.72 55.87
10 13 -1 417.74 83
10 13 0 337.18 76.82
10 13 1 152.75 58.24
10 13 2 300.54 73.01
10 13 3 208.91 62.09
10 13 4 336.45 69.49
10 13 5 157.71 51.73
10 13 6 366.88 72.64
10 13 7 173.35 54.24
11 -8 -8 281.23 72.61
11 -8 -7 7.93 24.52
11 -8 -6 85.6 33.9
11 -8 -5 161.96 53.69
11 -8 -4 15.56 24.88
11 -8 -3 45.85 26.32
11 -8 -2 10.05 26.45
11 -8 -1 113.19 43.55
11 -8 0 83.05 40.42
11 -7 -11 226.49 63.42
11 -7 -11 144.06 53.84
11 -7 -10 -5.72 21.56
11 -7 -10 -8.38 25.3
11 -7 -9 160.89 47.93
11 -7 -9 126.55 52.08
11 -7 -8 90.59 40.69
11 -7 -8 196.46 59.35
11 -7 -7 22.39 25.06
11 -7 -7 -8.97 29.4
11 -7 -6 161.79 51.69
11 -7 -5 56.31 39.52
11 -7 -4 51.62 35.57
11 -7 -3 42.76 35.73
11 -7 -2 208.63 56.19
11 -7 -1 68.53 38.25
11 -7 0 45.04 31.42
11 -7 1 43.24 27.39
11 -7 2 70.92 38.93
11 -7 3 19.34 21.44
11 -7 4 17.35 28.15
11 -7 5 112.45 45.42
11 -7 11 -13.65 29.75
11 -6 -13 -57.95 40.62
11 -6 -12 114.35 48.28
11 -6 -11 19.54 24.6
11 -6 -11 -25.44 27.99
11 -6 -10 183.31 54.97
11 -6 -10 100.45 41.11
11 -6 -9 80.37 42.09
11 -6 -9 27.63 33.35
11 -6 -8 183.83 56.05
11 -6 -8 168.36 58.34
11 -6 -7 310.89 65.7
11 -6 -7 287 68.95
11 -6 -6 32.54 28.94
11 -6 -6 71.95 41.36
11 -6 -5 306.83 59.19
11 -6 -4 35.63 22.33
11 -6 -3 338.93 64.28
11 -6 -2 141.82 42.82
11 -6 -1 136.95 43.97
11 -6 0 384.34 69.97
11 -6 1 49.65 36.74
11 -6 2 545.55 83.53
11 -6 3 115.22 44.39
11 -6 4 196.11 40.91
11 -6 4 197.31 52.47
11 -6 5 268.05 57.9
11 -6 5 281.63 61
11 -6 6 44.72 26.31
11 -6 7 134.26 40.48
11 -6 8 26.24 24.73
11 -6 8 20.35 16.92
11 -6 9 107.75 38.73
11 -6 9 32.55 28.5
11 -6 10 13.7 28.09
11 -6 11 169.89 46.43
11 -6 12 94.62 39.34
11 -5 -15 129.67 53.55
11 -5 -14 70.96 39.89
11 -5 -13 232.4 61.23
11 -5 -12 48.87 35.18
11 -5 -11 32.88 27.32
11 -5 -11 31.63 24.26
11 -5 -10 74.44 30.69
11 -5 -10 88.52 38.02
11 -5 -9 15.91 18.42
11 -5 -9 3.62 24.65
11 -5 -8 131.41 37.75
11 -5 -8 133.41 41.66
11 -5 -7 28.48 30.63
11 -5 -7 32.5 32
11 -5 -6 -13.89 22.8
11 -5 -6 22.76 36.07
11 -5 -5 22.4 27.11
11 -5 -5 40.92 28.9
11 -5 -4 17.82 27.64
11 -5 -3 94.04 41.24
11 -5 -2 298.24 62.26
11 -5 -1 430.28 66.93
11 -5 -1 460.32 74.29
11 -5 0 46.74 28.95
11 -5 0 16.25 21.96
11 -5 1 127.27 41.56
11 -5 1 66.17 31.35
11 -5 2 25.05 22
11 -5 2 29.14 26.07
11 -5 3 24.97 22.63
11 -5 3 17.48 22.14
11 -5 4 49.05 25.65
11 -5 5 88.16 34.25
11 -5 6 -14.98 20.68
11 -5 7 -35.31 25.84
11 -5 8 155.74 46.28
11 -5 9 37.93 26.49
11 -5 10 221.7 50.71
11 -5 12 83.2 33.21
11 -5 13 28.67 22.29
11 -4 -16 74.8 35.03
11 -4 -15 -21.02 37.34
11 -4 -14 101.16 42.73
11 -4 -13 107.89 46.84
11 -4 -12 55.5 38.74
11 -4 -11 271.99 55.11
11 -4 -11 179.25 54.85
11 -4 -10 25.89 28
11 -4 -10 30.32 27.26
11 -4 -9 344.74 61.76
11 -4 -9 348.35 73.08
11 -4 -8 86.01 35.49
11 -4 -8 55.92 39.64
11 -4 -7 404.82 66.04
11 -4 -7 454.22 80.77
11 -4 -6 189.4 48.1
11 -4 -6 230.86 58.56
11 -4 -5 215.36 48.95
11 -4 -5 167.8 49.27
11 -4 -4 264.44 51.39
11 -4 -4 226.39 48.45
11 -4 -3 102.82 34.81
11 -4 -3 162.65 43.63
11 -4 -2 457.98 69.25
11 -4 -2 413.81 70.58
11 -4 -1 90.39 37.86
11 -4 -1 66.91 30.71
11 -4 0 452.89 67.49
11 -4 0 465.17 70.89
11 -4 1 272.53 52.64
11 -4 1 190.89 50.75
11 -4 2 156.01 43.32
11 -4 3 314.56 55.14
11 -4 4 75.21 34.94
11 -4 5 456.83 69.41
11 -4 6 -1.56 16.95
11 -4 7 237.63 46.16
11 -4 8 40.32 22.51
11 -4 9 43.46 28.83
11 -4 10 115.32 37.61
11 -4 10 43.78 24.51
11 -4 11 13.02 21.97
11 -4 11 18.42 17
11 -4 12 78.26 33.11
11 -4 13 27.92 23.96
11 -4 14 161.51 43.05
11 -4 15 34.66 26.37
11 -3 -17 192.58 61.79
11 -3 -16 28.88 33.43
11 -3 -15 197.83 57.75
11 -3 -14 235.38 61.02
11 -3 -13 -9.33 31.05
11 -3 -12 330.58 71.31
11 -3 -11 18.83 22.13
11 -3 -11 34.51 24.44
11 -3 -10 260.34 53.14
11 -3 -10 210.84 56.73
11 -3 -9 75.11 31.06
11 -3 -9 110.89 41.96
11 -3 -9 19.18 25.3
11 -3 -8 70.06 32.78
11 -3 -8 103.18 38.7
11 -3 -8 91.07 39.4
11 -3 -7 75.52 24.89
11 -3 -7 121.91 40.61
11 -3 -7 89.14 34.22
11 -3 -6 30.61 24.07
11 -3 -6 38.37 29.51
11 -3 -6 -23.8 26.01
11 -3 -6 10.33 23.99
11 -3 -5 138.49 41.87
11 -3 -5 255.43 51.53
11 -3 -5 154 48.93
11 -3 -5 221.15 55.19
11 -3 -4 43.84 33.12
11 -3 -4 30.58 24.97
11 -3 -4 49.35 31.58
11 -3 -4 66.11 35.95
11 -3 -3 358.92 61.33
11 -3 -3 462.6 71.06
11 -3 -3 387.75 63.21
11 -3 -2 126.58 40.39
11 -3 -2 133.88 40.63
11 -3 -2 134.12 40.89
11 -3 -1 514.43 73.57
11 -3 -1 580.05 77.67
11 -3 -1 347.61 60.07
11 -3 0 514.48 72.45
11 -3 0 471.46 70.59
11 -3 0 439.96 66.47
11 -3 1 67.41 30.41
11 -3 1 32.95 24.06
11 -3 2 267.53 53.86
11 -3 2 286.88 49.06
11 -3 3 -14.11 28.39
11 -3 3 33 26.8
11 -3 4 91.75 30.59
11 -3 4 63.25 29.21
11 -3 5 53.1 25.25
11 -3 6 116.9 32.13
11 -3 6 92.93 29.26
11 -3 7 77.62 25.7
11 -3 7 129.38 38.05
11 -3 8 111.52 34.4
11 -3 8 64.81 28.16
11 -3 9 94.91 33.82
11 -3 9 81.17 32.78
11 -3 10 2.81 23.18
11 -3 10 8.46 19.58
11 -3 11 184.39 45.24
11 -3 11 155.14 41.17
11 -3 12 34.12 28.84
11 -3 12 -12.33 25.62
11 -3 13 200.74 47.36
11 -3 13 176.18 46.44
11 -3 14 94.09 32.91
11 -3 15 44.82 33
11 -2 -18 3.83 32.95
11 -2 -17 59.37 38.94
11 -2 -16 75.17 44.35
11 -2 -15 184 54.12
11 -2 -14 19.72 26.08
11 -2 -13 301.5 65.65
11 -2 -13 394.72 76.92
11 -2 -12 43.72 27.47
11 -2 -12 12.92 26.74
11 -2 -11 200.93 42.95
11 -2 -11 212.25 55.43
11 -2 -11 253.38 59.71
11 -2 -10 220.14 49.66
11 -2 -10 204.45 52.61
11 -2 -10 177.76 52.97
11 -2 -9 -12.86 20.17
11 -2 -9 -10.25 20.56
11 -2 -9 -17.32 23.66
11 -2 -8 363.97 59.84
11 -2 -8 468.5 65.16
11 -2 -8 466.84 73.53
11 -2 -8 479.69 76.77
11 -2 -7 80.41 35.07
11 -2 -7 69.77 29.71
11 -2 -7 109.26 43.9
11 -2 -7 58.92 33.58
11 -2 -6 608.73 77.52
11 -2 -6 655.33 77.1
11 -2 -6 772.05 94.33
11 -2 -6 640.2 85.66
11 -2 -5 3.99 21.88
11 -2 -5 5.98 16.73
11 -2 -5 51.81 31.81
11 -2 -5 29.98 30.37
11 -2 -4 465.51 70.16
11 -2 -4 411.61 60.36
11 -2 -4 361.49 62.59
11 -2 -4 368.8 61.2
11 -2 -3 206.34 45.91
11 -2 -3 221.09 46.98
11 -2 -3 225.04 50.45
11 -2 -3 147.07 42.21
11 -2 -2 115.51 40.23
11 -2 -2 103.95 35.35
11 -2 -2 135.28 42.62
11 -2 -1 376.37 60.78
11 -2 -1 306.92 54.41
11 -2 -1 275.03 50.72
11 -2 0 92.68 41.18
11 -2 0 46.47 26.93
11 -2 1 258.22 49.31
11 -2 1 230.94 47.4
11 -2 2 143.14 41.49
11 -2 2 98.05 25.4
11 -2 2 96.15 32.6
11 -2 3 547.23 72.39
11 -2 3 590.85 59.88
11 -2 3 459.45 62.25
11 -2 4 650.29 76.75
11 -2 4 506.21 57.09
11 -2 4 544.93 65.8
11 -2 5 290.83 53.28
11 -2 5 291 44.11
11 -2 5 215.15 43.21
11 -2 6 202.77 35.78
11 -2 6 238.57 46.6
11 -2 7 84.45 31.45
11 -2 7 39.96 20.97
11 -2 8 86.97 32.62
11 -2 8 157.9 38.4
11 -2 9 -0.15 18.54
11 -2 9 27.27 20.09
11 -2 10 325.52 53.7
11 -2 10 227.52 45.19
11 -2 11 63.33 23.3
11 -2 11 68.88 30.51
11 -2 12 162.57 43.99
11 -2 13 237.14 51.44
11 -2 14 -8.65 22.82
11 -2 15 62.58 32.67
11 -2 16 -19.68 27.38
11 -1 -18 88.42 37.84
11 -1 -17 21.45 29.83
11 -1 -16 171.96 60.91
11 -1 -16 119.01 39.35
11 -1 -15 -17.24 31.16
11 -1 -15 -14.48 26.13
11 -1 -14 159.81 49.99
11 -1 -14 219.5 57.42
11 -1 -13 -33.66 34.84
11 -1 -13 39.33 28.67
11 -1 -12 153.6 49.15
11 -1 -12 200.88 55.55
11 -1 -11 203.4 55.03
11 -1 -11 205.52 53.18
11 -1 -10 99.48 30.01
11 -1 -10 96.78 36.93
11 -1 -10 30.63 22.77
11 -1 -9 325.36 59.26
11 -1 -9 458.46 61.49
11 -1 -9 379.71 65.02
11 -1 -9 399.91 70.21
11 -1 -8 9.8 17.52
11 -1 -8 3.41 16.95
11 -1 -8 -19.14 27.39
11 -1 -8 -55.48 32.62
11 -1 -7 181.31 46.57
11 -1 -7 144.54 36.05
11 -1 -7 175.54 46.87
11 -1 -7 160.17 47.27
11 -1 -6 101.1 37.16
11 -1 -6 86.32 27.53
11 -1 -6 67.64 31.62
11 -1 -6 123.42 40.41
11 -1 -5 147.06 40.33
11 -1 -5 126.45 33.55
11 -1 -5 155.17 43.55
11 -1 -5 154.54 44.62
11 -1 -4 342.41 58.02
11 -1 -4 405.83 57.34
11 -1 -4 346.5 59.89
11 -1 -4 387.32 62.65
11 -1 -3 310.88 57.85
11 -1 -3 339.94 59.63
11 -1 -3 377.18 57.86
11 -1 -3 445.56 65.78
11 -1 -2 572.24 75.25
11 -1 -2 587.81 52.36
11 -1 -2 439.39 62.97
11 -1 -2 585.33 74.7
11 -1 -1 30.79 24.8
11 -1 -1 78.98 36.64
11 -1 -1 120.32 27.46
11 -1 0 769.98 62.67
11 -1 0 756.98 82.23
11 -1 0 580.5 73.01
11 -1 1 258.74 50.67
11 -1 1 269.12 50.54
11 -1 1 285.92 42.59
11 -1 2 289.05 49.55
11 -1 2 423.76 60.87
11 -1 2 467.39 53.39
11 -1 3 186.17 41.54
11 -1 3 210.08 46.18
11 -1 3 167.38 35.87
11 -1 4 32.95 25.36
11 -1 4 72.98 28.77
11 -1 4 104.63 29.96
11 -1 5 236.93 41.8
11 -1 5 186.18 37.49
11 -1 6 -2.64 16.2
11 -1 6 32.66 20.67
11 -1 7 428.49 57.23
11 -1 8 -11.3 18.16
11 -1 9 220.55 41.85
11 -1 10 15.22 23.9
11 -1 11 102.37 32.44
11 -1 12 70.07 28.64
11 -1 13 -49.12 29.4
11 -1 14 274.82 55.61
11 -1 15 29.58 24.02
11 -1 16 68.27 32.17
11 0 -18 -17.12 24.87
11 0 -17 81.9 38.38
11 0 -16 14.35 29.45
11 0 -16 61.26 38.05
11 0 -15 120.45 45.43
11 0 -15 48.2 29.02
11 0 -14 142.24 44.89
11 0 -14 227.4 60.35
11 0 -13 45.54 33.5
11 0 -13 93.72 39
11 0 -12 41.47 31.65
11 0 -12 65.44 30.42
11 0 -11 20.67 21.34
11 0 -11 -25.29 34.21
11 0 -10 84.36 31.73
11 0 -10 98.47 37.76
11 0 -10 87.36 37.65
11 0 -9 57.41 25.73
11 0 -9 50.07 24.79
11 0 -9 -0.99 28.94
11 0 -8 106.89 40.03
11 0 -8 151.64 41.79
11 0 -8 105.53 30.6
11 0 -8 135.26 38.87
11 0 -7 335.97 66.61
11 0 -7 339.06 60.01
11 0 -7 385.95 53
11 0 -7 339.63 58.48
11 0 -6 64.64 33.14
11 0 -6 57.67 28.26
11 0 -6 110.1 31.6
11 0 -6 51.43 28.02
11 0 -5 652.79 78.67
11 0 -5 739.03 74.25
11 0 -5 669.4 60.57
11 0 -5 638.37 75.11
11 0 -5 575.87 76.8
11 0 -4 54.75 33.08
11 0 -4 76.76 31
11 0 -4 93.04 27.8
11 0 -4 72.72 30.2
11 0 -3 673.68 79.31
11 0 -3 580.03 54.75
11 0 -3 532.5 64.68
11 0 -3 540.86 66.32
11 0 -3 515.41 71.27
11 0 -2 16.46 20.92
11 0 -2 10.23 19.81
11 0 -2 71.41 27.9
11 0 -1 191.95 41.46
11 0 -1 192.64 42.04
11 0 -1 255.74 38.07
11 0 0 135.92 35.74
11 0 0 86.02 23.28
11 0 0 129.39 37.81
11 0 1 120.9 35.82
11 0 1 157.37 31.7
11 0 2 533.59 56.76
11 0 2 603.09 66.76
11 0 3 128.82 33.2
11 0 3 248.45 44.21
11 0 4 550.23 62.45
11 0 4 730.99 70.92
11 0 5 48.74 25.19
11 0 5 35.24 19.15
11 0 6 294.18 49.3
11 0 6 416.22 51.73
11 0 7 11.16 14.89
11 0 7 -2.79 17.21
11 0 8 121.73 36.08
11 0 9 40.16 23.66
11 0 10 -11.28 19.11
11 0 11 97.36 29.49
11 0 12 20.4 24.16
11 0 13 226.61 50.29
11 0 14 -7.73 20.95
11 0 15 20.69 21.15
11 0 16 8.41 20.14
11 1 -19 38.34 34.33
11 1 -18 74.34 39.72
11 1 -17 24.05 33.49
11 1 -17 108.97 47.4
11 1 -16 17.38 22.52
11 1 -16 17.81 29.12
11 1 -15 122.05 47.64
11 1 -15 75.42 41.77
11 1 -14 12.16 27.64
11 1 -14 79.06 44.05
11 1 -13 140.75 46.51
11 1 -13 118.7 47.86
11 1 -12 -17.14 22.73
11 1 -12 14.67 28.04
11 1 -11 362 68.37
11 1 -11 333.97 56.9
11 1 -11 371.82 63.44
11 1 -10 59.84 31.05
11 1 -10 36.96 23.38
11 1 -10 52.88 27.29
11 1 -9 165.57 45.16
11 1 -9 155.82 38.03
11 1 -9 114.29 39.5
11 1 -8 392.51 67.53
11 1 -8 311.44 54.97
11 1 -8 346.23 50.99
11 1 -8 267.47 53.67
11 1 -7 -18.95 32.36
11 1 -7 -39.72 25.9
11 1 -7 13.71 16.81
11 1 -7 8.2 12.87
11 1 -7 -23.46 27.98
11 1 -6 231.02 50.21
11 1 -6 263.02 52.35
11 1 -6 237.85 41.17
11 1 -6 194.48 40.96
11 1 -6 229.57 37.78
11 1 -5 70.9 35.98
11 1 -5 -8.4 19.03
11 1 -5 8.62 18.53
11 1 -5 37.93 22.42
11 1 -5 33.75 19.45
11 1 -4 273.77 52.84
11 1 -4 189.43 44.57
11 1 -4 230.45 39.69
11 1 -4 238.8 41.98
11 1 -4 229.33 43.71
11 1 -3 88.5 36.88
11 1 -3 134.27 31.69
11 1 -3 92.61 35.66
11 1 -2 374.51 59.87
11 1 -2 488.32 55.37
11 1 -1 524.4 59.85
11 1 0 603.45 61.34
11 1 1 258.32 41.98
11 1 2 40.03 21.03
11 1 3 290.97 45.71
11 1 4 155.4 35.62
11 1 5 230.01 44.06
11 1 6 42.62 21.85
11 1 7 113.46 34.89
11 1 8 217.1 45.47
11 1 9 50.32 30.53
11 1 10 269.15 49.78
11 1 11 51.89 27.5
11 1 12 94.26 33.71
11 1 13 61.03 25.43
11 1 14 33.73 21.41
11 1 15 40.43 32.92
11 1 16 25.94 18.52
11 2 -19 55.72 41.45
11 2 -18 93.96 45.43
11 2 -17 -38.85 34.93
11 2 -17 25.49 34.41
11 2 -16 218.89 54.65
11 2 -16 210.82 60.46
11 2 -15 4.32 25.26
11 2 -15 -16.75 33.9
11 2 -14 214.73 57.75
11 2 -14 223.11 60.21
11 2 -13 20.25 29.77
11 2 -13 5.61 28.35
11 2 -12 304.37 63.92
11 2 -12 198.61 58.24
11 2 -12 185.72 45.15
11 2 -11 160.4 44.83
11 2 -11 211.18 55.46
11 2 -11 162.44 42.65
11 2 -10 50.48 33.64
11 2 -10 66.08 32.6
11 2 -10 41.33 25.68
11 2 -9 185.75 49.06
11 2 -9 206.14 46.48
11 2 -9 154.34 36.89
11 2 -8 57.57 39.15
11 2 -8 -1.34 19.18
11 2 -8 44.37 29.66
11 2 -8 10.16 23.2
11 2 -7 64.31 30.98
11 2 -7 77.37 26.39
11 2 -7 88.91 30.23
11 2 -6 13.93 21.86
11 2 -6 18.3 14.19
11 2 -5 395.64 61.58
11 2 -5 462.96 60.64
11 2 -5 365.89 47.99
11 2 -4 175.34 42.16
11 2 -4 114.57 28.79
11 2 -4 211.13 45.63
11 2 -3 823.2 76.49
11 2 -2 180.75 42.73
11 2 -1 -18.12 21.47
11 2 0 48.18 22.2
11 2 1 105.76 30.91
11 2 2 642.22 67.09
11 2 3 387.8 54.54
11 2 4 300.06 49.88
11 2 5 361.16 55.58
11 2 6 0.27 24.83
11 2 7 230.01 44.88
11 2 8 -15.74 19.35
11 2 9 259.43 48.81
11 2 10 1.28 18.43
11 2 11 244.87 49.18
11 2 12 115.41 36.32
11 2 13 16.78 21.65
11 2 14 202.68 51.71
11 2 15 11.87 18.76
11 2 16 104.71 40.88
11 2 17 65.32 35.43
11 3 -19 151.27 58.59
11 3 -18 49.62 44.03
11 3 -17 209.26 59.81
11 3 -17 273.25 68.72
11 3 -16 40.97 31.3
11 3 -16 -4.88 37.68
11 3 -15 245.16 68.1
11 3 -15 226.42 63.64
11 3 -14 56.45 34.59
11 3 -14 29.61 31.09
11 3 -13 9.68 30.21
11 3 -13 115.97 40.82
11 3 -13 112 34.1
11 3 -12 167.46 54.33
11 3 -12 117.66 37.14
11 3 -11 44.26 34.17
11 3 -11 16.87 25.28
11 3 -10 220.6 55.27
11 3 -10 238.29 47.56
11 3 -9 44.46 36.67
11 3 -9 1.27 19.3
11 3 -8 504.61 67.22
11 3 -7 71.46 22.96
11 3 -7 108.19 36.89
11 3 -6 330.37 56.51
11 3 -6 423.45 60.91
11 3 -5 199.59 45.06
11 3 -4 76.08 38.29
11 3 -3 706.88 76.05
11 3 -2 174.9 46.65
11 3 -1 1024.81 90.17
11 3 0 270.66 54.83
11 3 1 754.21 76.22
11 3 2 247.68 50.5
11 3 3 397.9 56.93
11 3 4 193.83 43.84
11 3 5 95.25 34.12
11 3 6 429.23 63.28
11 3 7 12.24 16.08
11 3 8 544.96 70.58
11 3 9 71.81 31.66
11 3 10 111.36 37.59
11 3 11 89.35 36.41
11 3 12 39.09 26.61
11 3 13 219.52 49.48
11 3 14 27.44 27.45
11 3 15 175.44 47.8
11 3 16 34.6 27.85
11 4 -16 130.42 47.1
11 4 -15 4.82 28.01
11 4 -14 258.23 66.14
11 4 -13 88.78 39.38
11 4 -12 58.51 37.18
11 4 -12 87.32 34.01
11 4 -11 315.9 62.7
11 4 -11 224.23 48.9
11 4 -10 -0.49 20.86
11 4 -9 328.79 53.99
11 4 -8 171.6 41.8
11 4 -7 112.5 34.07
11 4 -6 390.14 61.16
11 4 -5 213.54 49.14
11 4 -4 357.81 57.9
11 4 -3 55.59 32.76
11 4 -2 395.55 60.92
11 4 -1 379.16 60.79
11 4 0 402.78 63.76
11 4 1 290.96 53.16
11 4 2 293.66 53.64
11 4 3 398.7 61.5
11 4 4 87.39 34.69
11 4 5 384.08 58.64
11 4 6 114.05 33.77
11 4 7 164.08 41.05
11 4 8 86.98 35.09
11 4 9 103.4 36.73
11 4 10 255.5 54.84
11 4 11 14.16 22.89
11 4 12 366.12 65.1
11 4 13 154.46 42.64
11 4 14 67.22 28.95
11 4 15 259.01 58.72
11 4 16 17.11 29.18
11 5 -16 183.51 57.38
11 5 -15 38.02 29.54
11 5 -14 201.15 56.13
11 5 -13 -34.65 31.41
11 5 -11 36.34 20.96
11 5 -10 268.35 49.47
11 5 -9 323.43 54.09
11 5 -8 111.9 32.97
11 5 -5 140.44 42.45
11 5 -4 99.54 39.84
11 5 -3 370.8 64.33
11 5 -2 193.71 52.4
11 5 -1 145.01 43.36
11 5 0 326.92 58.69
11 5 1 133.63 43.98
11 5 2 464.79 68.5
11 5 3 84.36 41.94
11 5 4 354.53 60.3
11 5 5 79.09 35.66
11 5 6 43.52 26.69
11 5 7 160.97 45.1
11 5 8 46.15 30.01
11 5 9 537.64 75.29
11 5 10 2.99 19.19
11 5 11 273.65 60.29
11 5 12 77.34 34.71
11 5 13 112.7 38.93
11 5 14 89.26 35.96
11 5 15 24.68 25.3
11 5 16 116.73 42.37
11 6 -15 365.24 76.92
11 6 -14 66.88 47.01
11 6 -10 209.76 44.82
11 6 -9 77.65 28.89
11 6 -5 23.07 30.73
11 6 -4 493.03 73.72
11 6 -3 87.25 39.37
11 6 -2 319.24 65.53
11 6 -1 655.45 86.15
11 6 0 187.3 57.11
11 6 1 1015.39 101.1
11 6 2 325.89 64.72
11 6 3 416.82 68.47
11 6 4 521.3 72.87
11 6 5 70.08 40.14
11 6 6 714.46 87.36
11 6 7 113.55 41.55
11 6 8 442.07 69.1
11 6 9 93.12 39.21
11 6 10 121.55 37.56
11 6 11 94.18 37.21
11 6 12 194.2 51.48
11 6 13 294 64.46
11 6 14 -7.12 20.09
11 6 15 334.05 64.38
11 6 16 52.28 33.33
11 7 -15 11.12 39.75
11 7 -4 86.45 39.93
11 7 -3 15.51 27.45
11 7 -2 103.31 37.83
11 7 -1 78.46 45.13
11 7 0 630.69 86.17
11 7 1 328.13 65.26
11 7 2 261 59.16
11 7 3 383.12 67.19
11 7 4 20.68 24.03
11 7 5 82.3 31.98
11 7 6 35.82 26.57
11 7 7 188.69 50.55
11 7 8 31.74 28.83
11 7 9 135.45 45.94
11 7 10 213.61 52.1
11 7 11 17.8 24.77
11 7 12 248.02 56.87
11 7 13 -8.57 23.31
11 7 14 213.11 55.69
11 7 15 29.17 34.91
11 8 -4 34.62 26.03
11 8 -3 271.6 64.39
11 8 -2 38.2 37.4
11 8 -1 304.36 62.15
11 8 0 193.78 55.44
11 8 1 114.56 43.22
11 8 2 322.79 62.81
11 8 3 45.9 38.55
11 8 4 440.05 75.13
11 8 5 98.4 43.8
11 8 6 61.29 30.34
11 8 7 66.78 36.34
11 8 8 15.93 24.68
11 8 9 162.88 46.47
11 8 10 131.83 40.97
11 8 11 128.6 40.36
11 8 12 14.57 30.12
11 8 13 127.62 45.57
11 8 14 91.17 37.75
11 9 -4 282.64 65.65
11 9 -3 100.58 46.66
11 9 -2 303.55 66.05
11 9 -1 433.95 75.11
11 9 0 227.29 68.56
11 9 1 788.39 102.15
11 9 2 244.17 67.18
11 9 3 482.33 80.54
11 9 4 243.65 63.5
11 9 5 313.42 69.38
11 9 6 260.12 67.34
11 9 7 52.04 41.31
11 9 8 208.09 57.82
11 9 9 48.38 29.75
11 9 10 156.31 47.15
11 9 11 141.36 47.99
11 9 12 159.32 48.78
11 9 13 -21.12 26.47
11 10 -4 135.59 55.41
11 10 -3 114.89 46.97
11 10 -2 257.86 66.87
11 10 -1 112.5 52.09
11 10 0 292.49 67.11
11 10 1 125.79 53.06
11 10 2 246.08 63.24
11 10 3 272.6 67.99
11 10 4 262.84 66.92
11 10 5 248.56 61.76
11 10 6 94.99 49.78
11 10 7 412.39 74.53
11 10 8 67.1 35.68
11 10 9 423.12 78.48
11 10 10 202.35 59.88
11 10 11 245.37 62.29
11 10 12 276.78 67.81
11 11 -4 131.55 56.01
11 11 -3 183.17 59.25
11 11 -2 94.6 47.64
11 11 -1 339.21 73.15
11 11 0 179.86 60.46
11 11 1 288.59 68.9
11 11 2 290.76 64.07
11 11 3 97.4 45.43
11 11 4 319.71 73.94
11 11 5 106.37 49.78
11 11 6 208.23 57.85
11 11 7 52.03 37.83
11 11 8 148.19 53.92
11 11 9 231.47 62.7
11 11 10 75.79 40.93
11 12 -1 437.96 87.83
11 12 0 257.94 71
11 12 1 347.3 74.51
11 12 2 226.18 68.73
11 12 3 409.5 81.92
11 12 4 82.89 44.99
11 12 5 552.87 91.25
11 12 6 382.47 80
12 -7 -8 72.6 45.09
12 -6 -11 86.68 36.77
12 -6 -11 114.86 56.31
12 -6 -10 16.85 28.7
12 -6 -10 -6.41 23.62
12 -6 -9 151.26 53.86
12 -6 -9 120.89 54.57
12 -6 -8 23.86 25.4
12 -6 -8 57.21 42.42
12 -6 -7 111.27 38.18
12 -6 -7 210.44 62.11
12 -6 -6 160.69 51.23
12 -6 -5 193.4 55.29
12 -6 -4 314.38 65.26
12 -6 -3 67.11 35.22
12 -6 -2 355.28 71.47
12 -6 -1 62.62 32.91
12 -6 0 228.44 58.06
12 -6 1 77.62 37.88
12 -6 2 155.85 51.42
12 -6 3 144.92 50.02
12 -6 4 16.81 25.67
12 -6 5 129.25 44.02
12 -6 6 -27.1 23.98
12 -6 7 47.55 31.62
12 -6 8 11.19 19.34
12 -5 -13 13.24 40.97
12 -5 -12 276.47 72.53
12 -5 -11 34.61 26.24
12 -5 -11 -9.14 29.68
12 -5 -10 260.12 59.66
12 -5 -10 372.47 85.79
12 -5 -9 115.84 37.48
12 -5 -9 183.28 57.68
12 -5 -8 236.63 56.82
12 -5 -8 287.64 68.04
12 -5 -7 409.77 71.68
12 -5 -7 500.37 91.57
12 -5 -6 121.16 50.1
12 -5 -6 256.54 68.04
12 -5 -5 483.93 78.13
12 -5 -4 68.19 35.94
12 -5 -3 338.45 66.56
12 -5 -2 82.46 38.89
12 -5 -1 330.03 61.36
12 -5 -1 363.03 68.56
12 -5 0 386.55 66.74
12 -5 0 381.12 73.39
12 -5 1 174.81 50.39
12 -5 1 147.01 50.43
12 -5 2 235.8 54.81
12 -5 2 248.2 59.01
12 -5 3 89.34 33.18
12 -5 3 140.15 52.46
12 -5 4 477.01 74.08
12 -5 4 423.32 77.5
12 -5 5 18.68 22.35
12 -5 6 413.27 69.81
12 -5 7 132.22 44.02
12 -5 8 152.25 46.05
12 -5 9 61.17 31.03
12 -5 10 -30.04 27.24
12 -4 -14 68.24 41.98
12 -4 -13 147.09 52.71
12 -4 -12 23.99 25.12
12 -4 -11 183.61 51.32
12 -4 -11 62.17 36.53
12 -4 -10 -32.78 30.64
12 -4 -10 61.59 33.69
12 -4 -9 40.75 32.86
12 -4 -9 -11.78 32.73
12 -4 -8 246.79 53.84
12 -4 -8 184.79 58.78
12 -4 -7 54.97 34.39
12 -4 -7 115.55 50.65
12 -4 -6 289.07 58.94
12 -4 -6 199.95 54.06
12 -4 -5 40.08 34.81
12 -4 -4 125.59 42.72
12 -4 -4 172.9 50.69
12 -4 -3 94.38 35.52
12 -4 -3 15.83 20.39
12 -4 -2 134.09 44.01
12 -4 -2 198.25 49.42
12 -4 -1 247.72 54.64
12 -4 -1 212.39 53.55
12 -4 0 16.75 19.86
12 -4 0 94.93 38.44
12 -4 1 110.27 36.41
12 -4 1 189.45 49.68
12 -4 2 81.7 33.29
12 -4 2 57.51 31.66
12 -4 3 213.24 51.47
12 -4 4 154.72 43.87
12 -4 5 125.55 41.57
12 -4 6 61.27 30.7
12 -4 7 -24.14 22.45
12 -4 8 128.04 36.73
12 -4 9 -10.37 19.01
12 -4 10 153.07 42.82
12 -4 11 31.93 25.28
12 -3 -15 -14.58 35.57
12 -3 -14 217.89 67.06
12 -3 -13 -1.18 28.59
12 -3 -12 169.48 57.47
12 -3 -11 106.09 36.43
12 -3 -11 133.63 44.76
12 -3 -10 -9.08 23.55
12 -3 -10 68.62 37.28
12 -3 -9 266.06 55.26
12 -3 -9 199.94 50
12 -3 -8 46.01 24.27
12 -3 -8 4.31 26.09
12 -3 -8 9.31 25.99
12 -3 -7 278.03 57.7
12 -3 -7 263.35 62.08
12 -3 -7 276.91 62.32
12 -3 -6 72.44 37.01
12 -3 -6 79.99 35.36
12 -3 -6 32.4 33.16
12 -3 -6 8.31 34.43
12 -3 -5 334.17 62.24
12 -3 -5 302.17 58.64
12 -3 -5 338.97 66.94
12 -3 -5 269.75 58.05
12 -3 -4 84.7 37.78
12 -3 -4 97.81 36.82
12 -3 -4 197.31 52.49
12 -3 -3 378.27 67.98
12 -3 -3 496.56 74.49
12 -3 -3 300.12 61.3
12 -3 -2 488.17 70.75
12 -3 -2 383.22 65.72
12 -3 -2 350.24 62.58
12 -3 -1 94.42 35.56
12 -3 -1 93.37 32.33
12 -3 -1 15.41 23.68
12 -3 0 668.4 86.19
12 -3 0 643.18 85.3
12 -3 0 446.16 69.36
12 -3 1 357.9 65.17
12 -3 1 210.44 47.12
12 -3 2 317.03 61.8
12 -3 2 273.48 52.69
12 -3 3 334.97 62.54
12 -3 3 313.95 55.71
12 -3 4 113.78 35.05
12 -3 5 434.62 68.68
12 -3 6 36.16 18.9
12 -3 7 249.83 53.69
12 -3 8 35.56 27.22
12 -3 9 92.04 34.06
12 -3 10 143.36 43.3
12 -3 11 21.1 21.03
12 -3 12 92.62 37.18
12 -3 12 158.64 42.12
12 -3 13 -48 31.15
12 -3 14 84.11 31.93
12 -2 -16 27.9 30.04
12 -2 -15 99.54 45.74
12 -2 -14 121.26 41.55
12 -2 -13 146.06 55.75
12 -2 -12 199.46 59.05
12 -2 -12 268.39 70.72
12 -2 -11 34.67 25.18
12 -2 -11 -0.68 25.63
12 -2 -10 192.32 43.53
12 -2 -10 211.23 58.08
12 -2 -10 159.46 50.89
12 -2 -9 -9.55 23.03
12 -2 -9 -5.87 27.83
12 -2 -8 175.43 46.79
12 -2 -8 218.4 44.19
12 -2 -8 199.15 54.46
12 -2 -8 116.24 40.91
12 -2 -7 118.73 36.64
12 -2 -7 189.67 43.76
12 -2 -7 221.45 54.32
12 -2 -7 200.45 54.4
12 -2 -6 147.51 45.98
12 -2 -6 192.52 48.98
12 -2 -6 165.63 44.96
12 -2 -6 114.15 37.05
12 -2 -5 612.89 86.13
12 -2 -5 660.19 82.89
12 -2 -5 727.53 91.79
12 -2 -5 556.96 83.79
12 -2 -4 136.1 45.38
12 -2 -4 162.72 45.32
12 -2 -4 145.15 45.82
12 -2 -4 88.98 42.46
12 -2 -3 296.93 59.55
12 -2 -3 322.18 59.18
12 -2 -3 351.08 62.23
12 -2 -2 43.09 28.38
12 -2 -2 115.02 41.64
12 -2 -2 38.01 28.46
12 -2 -1 448.32 69.83
12 -2 -1 356.96 62.43
12 -2 -1 377.04 62.92
12 -2 0 122.96 42.82
12 -2 0 125.66 36.54
12 -2 1 197.28 49.31
12 -2 1 170.63 43.04
12 -2 2 406.87 69.69
12 -2 2 308.43 53.87
12 -2 3 187.76 44.75
12 -2 3 185.56 43.11
12 -2 4 453.16 68.68
12 -2 4 271.98 48.76
12 -2 5 94.32 41.6
12 -2 6 329.41 57.55
12 -2 7 85.11 29.19
12 -2 7 59.16 29.69
12 -2 8 158.27 41.65
12 -2 8 166.8 42.54
12 -2 9 109.47 34.44
12 -2 9 174.95 45.92
12 -2 10 57.67 28.46
12 -2 10 5.7 24.27
12 -2 11 108.79 34.91
12 -2 11 85.88 33.38
12 -2 12 -31.38 29.03
12 -2 12 8.01 17.52
12 -2 13 55.97 24.54
12 -2 13 152.28 40.22
12 -2 14 -28.93 26.12
12 -1 -17 58.89 39.09
12 -1 -16 79.75 35.88
12 -1 -15 77.51 42.17
12 -1 -14 100.01 37.82
12 -1 -13 159.27 59.41
12 -1 -13 204.2 57.4
12 -1 -12 7.93 24.56
12 -1 -12 37.27 30.44
12 -1 -11 237.24 59.4
12 -1 -11 113.35 45.37
12 -1 -10 61.64 33.99
12 -1 -10 41.37 28.01
12 -1 -9 158.17 45.23
12 -1 -9 145.31 42.01
12 -1 -9 136.68 49.24
12 -1 -8 284.58 59.53
12 -1 -8 250.87 50.16
12 -1 -8 232.3 54.3
12 -1 -8 341.71 66.19
12 -1 -7 78.73 34.02
12 -1 -7 76.91 31.3
12 -1 -7 90.71 29.77
12 -1 -7 103.59 41.74
12 -1 -6 588.18 82.21
12 -1 -6 501.67 67.47
12 -1 -6 551.62 77.85
12 -1 -6 480.91 75.29
12 -1 -5 27.78 26.61
12 -1 -5 52.86 30.69
12 -1 -5 61.41 38.7
12 -1 -4 328.9 62.7
12 -1 -4 329.09 55.14
12 -1 -4 310.27 62.96
12 -1 -3 22.09 31.81
12 -1 -3 -9.33 22.05
12 -1 -3 80.57 35.42
12 -1 -2 517.09 73.71
12 -1 -2 492.72 70.88
12 -1 -2 407.26 65.9
12 -1 -1 262.89 54.25
12 -1 -1 191.03 46.62
12 -1 0 196.99 45.76
12 -1 0 171.9 44.92
12 -1 1 274.24 51.9
12 -1 1 339.22 58.34
12 -1 2 -1.71 22.61
12 -1 2 15.76 23.17
12 -1 2 71.38 26.23
12 -1 3 368.89 56.9
12 -1 3 467.03 69.83
12 -1 3 437.44 54.16
12 -1 4 6.35 16.33
12 -1 4 97.83 39.72
12 -1 4 80.77 32.04
12 -1 5 658.66 82.6
12 -1 5 661.43 70.95
12 -1 5 546.09 66.06
12 -1 6 102.41 39.14
12 -1 6 63.45 28.25
12 -1 7 109.17 31.99
12 -1 8 94.81 30.74
12 -1 9 -26.36 23
12 -1 10 173.44 41.49
12 -1 11 18.24 25.43
12 -1 12 78.88 28.49
12 -1 13 45.81 22.59
12 -1 14 102.87 41.12
12 -1 15 58.39 27.78
12 0 -17 21.08 27.52
12 0 -16 126.84 50.42
12 0 -15 56.49 34.95
12 0 -14 96.81 43.71
12 0 -14 81.48 43.4
12 0 -13 -19.21 31.34
12 0 -13 2.49 27.44
12 0 -12 34.85 25.75
12 0 -12 122.88 52.18
12 0 -11 40.57 35.43
12 0 -11 -1.87 26.51
12 0 -10 53.92 24.48
12 0 -10 56.64 31.68
12 0 -9 46.16 28.02
12 0 -9 87.85 37.95
12 0 -8 68.56 30.28
12 0 -8 25.24 27.61
12 0 -7 173.3 43.52
12 0 -7 126.52 35.93
12 0 -7 173.59 51.51
12 0 -6 -24.43 26.47
12 0 -6 -7.16 20.44
12 0 -6 -21.03 21.82
12 0 -5 134.17 47.14
12 0 -5 229.05 54.8
12 0 -5 265.87 50.83
12 0 -4 217.99 52.42
12 0 -4 244.67 52.04
12 0 -4 211.62 41.87
12 0 -3 202.18 47.9
12 0 -3 268.7 55.87
12 0 -3 270.86 50.14
12 0 -2 232.8 48.62
12 0 -2 229.23 54.68
12 0 -1 44.06 28.07
12 0 -1 133.86 29.73
12 0 -1 45.89 28.28
12 0 0 254.83 48.37
12 0 0 314.59 43.79
12 0 0 330.18 58.95
12 0 1 22.64 24.4
12 0 1 43.83 29.79
12 0 1 84.58 28.16
12 0 2 329.11 51.14
12 0 2 401.75 62.58
12 0 2 293.51 42.7
12 0 3 87.58 30.18
12 0 3 55.61 23.73
12 0 4 85.29 29.72
12 0 4 195.27 41.92
12 0 5 158.15 35.46
12 0 5 153.9 36.83
12 0 6 -13.04 20.91
12 0 6 65.9 26.89
12 0 7 189.84 43.3
12 0 8 38.78 28.64
12 0 9 159.28 43.03
12 0 10 17.32 22.43
12 0 11 99.22 33.68
12 0 12 44.74 27.21
12 0 13 0.61 22.41
12 0 14 37.9 24.98
12 0 15 -17.31 25.04
12 1 -14 30.62 35.04
12 1 -13 73.37 42.6
12 1 -12 189.93 58.67
12 1 -11 100.93 37.46
12 1 -11 16.81 26.21
12 1 -10 337.67 69.63
12 1 -10 317.96 59.22
12 1 -9 19.6 27.65
12 1 -9 33.84 26.82
12 1 -8 236.98 60.86
12 1 -8 352.8 64.53
12 1 -7 34.73 31.1
12 1 -7 51.91 30.29
12 1 -6 154.6 45.69
12 1 -6 250.75 53.64
12 1 -6 260.01 42.17
12 1 -5 37.8 30.54
12 1 -5 120.86 42.41
12 1 -5 81.52 28.77
12 1 -4 107.65 36.1
12 1 -4 130.5 32.12
12 1 -4 101.38 36.33
12 1 -4 121.59 32.03
12 1 -3 77.43 33.4
12 1 -3 137.27 41.78
12 1 -3 103.66 32.12
12 1 -3 105.72 29.32
12 1 -2 6.03 20.75
12 1 -2 59.62 23.69
12 1 -1 78.34 28.9
12 1 -1 95.48 31.12
12 1 -1 131.09 31.02
12 1 0 58.46 28.43
12 1 1 91.68 28.16
12 1 2 115.13 29.15
12 1 3 94.2 30.67
12 1 4 158.33 37.46
12 1 5 76.87 29.27
12 1 6 199.48 45.03
12 1 7 -4.97 15.84
12 1 8 311.55 56.11
12 1 9 45.45 23.86
12 1 10 154.73 43.7
12 1 11 188.8 45.2
12 1 12 32.07 27.55
12 1 13 156.88 44.56
12 1 14 -21.84 19.05
12 1 15 92.95 30.99
12 2 -14 44.39 34
12 2 -13 242.7 66.92
12 2 -12 34.61 38.73
12 2 -12 70.24 31.13
12 2 -11 225.8 58.37
12 2 -11 166.46 48.12
12 2 -10 50.56 32.28
12 2 -10 -24.03 29.69
12 2 -9 499 80.25
12 2 -9 639.7 84.73
12 2 -8 34.93 29.71
12 2 -8 8.1 27.44
12 2 -7 516.54 80.25
12 2 -7 745.55 87.77
12 2 -7 687.79 78.12
12 2 -6 584.11 81.72
12 2 -6 696.91 78.5
12 2 -6 649.72 88.03
12 2 -5 70.49 43.98
12 2 -5 84.99 41.07
12 2 -5 176.83 41.3
12 2 -4 524.65 72.67
12 2 -4 563.95 63.85
12 2 -4 637.54 71.11
12 2 -3 270.76 51.63
12 2 -3 146.69 40.88
12 2 -2 621.49 69.22
12 2 -1 464.97 61.77
12 2 0 775.82 75.87
12 2 1 303.44 52.73
12 2 2 268.78 47.21
12 2 3 272.26 46.39
12 2 4 209.78 44.11
12 2 5 413.95 59.91
12 2 6 106.04 35.49
12 2 7 532.68 72.86
12 2 8 498.95 69.61
12 2 9 45.18 26.83
12 2 10 433.55 68.44
12 2 11 27 28.13
12 2 12 171.4 47.53
12 2 13 13.44 18.34
12 2 14 83.33 33.54
12 2 15 90.77 38.49
12 3 -14 154.71 55.48
12 3 -13 36.7 30.22
12 3 -13 83.72 36.35
12 3 -12 285.48 66.22
12 3 -12 232.71 51.49
12 3 -11 19.18 31.95
12 3 -11 -1.11 28.18
12 3 -10 194.96 57.18
12 3 -10 82.43 32.26
12 3 -9 186.92 55.22
12 3 -9 175.71 48.93
12 3 -9 115.66 35.48
12 3 -8 -23.75 29.26
12 3 -8 41.68 21.18
12 3 -7 229.87 49.26
12 3 -7 310.12 54.43
12 3 -6 -25.95 27.88
12 3 -6 39.87 26.46
12 3 -5 147.89 43.65
12 3 -5 130.76 43.93
12 3 -4 11.29 21.54
12 3 -3 224.78 45.55
12 3 -2 78.19 35.55
12 3 -1 206.66 43.27
12 3 0 296.41 50.43
12 3 1 70.96 33.89
12 3 2 488.09 63.19
12 3 3 103.17 36.69
12 3 4 208.05 47.28
12 3 5 120.89 35.63
12 3 6 103.3 31.92
12 3 7 168.17 42.91
12 3 8 55.44 29.55
12 3 9 121.92 39.08
12 3 10 -10.68 20.13
12 3 11 141.02 38.96
12 3 12 201.84 53.22
12 3 13 87.24 37.55
12 3 14 192.88 50.1
12 3 15 51.89 34.59
12 4 -14 11.69 30.57
12 4 -13 128.24 48.4
12 4 -12 35.27 44.35
12 4 -12 30.5 19.36
12 4 -11 360.69 72.59
12 4 -11 344.45 58.89
12 4 -10 291.85 63.21
12 4 -10 254.59 53.32
12 4 -9 172.83 48.58
12 4 -8 165.2 44.37
12 4 -8 147.65 45.81
12 4 -7 -10.37 19.46
12 4 -7 96.59 35.03
12 4 -6 324.19 59.35
12 4 -6 332.48 60.62
12 4 -5 91.83 38.56
12 4 -4 509.64 74.36
12 4 -3 384.13 65.58
12 4 -2 225.4 52.72
12 4 -1 491.35 71.72
12 4 0 215.5 55.07
12 4 1 564.32 73.63
12 4 2 108.16 39.06
12 4 3 502.04 70.52
12 4 4 362.4 60.05
12 4 5 68.92 32.37
12 4 6 528.39 73.76
12 4 7 88.92 36.68
12 4 8 266.63 57.06
12 4 9 78.45 30.83
12 4 10 322.51 64.6
12 4 11 104.18 41.64
12 4 12 153.35 44.14
12 4 13 225.41 57.33
12 4 14 56.59 28.57
12 5 -13 122.54 52.41
12 5 -12 120.18 48.87
12 5 -11 194.45 44.31
12 5 -10 48.5 32.61
12 5 -9 248.94 50.99
12 5 -8 -0.66 18.83
12 5 -8 48.1 34.31
12 5 -7 226.26 50.09
12 5 -7 226.86 50.18
12 5 -6 156.82 47.15
12 5 -5 428.62 70.62
12 5 -4 256.32 61.96
12 5 -3 292.23 64.17
12 5 -2 379.32 69.55
12 5 -1 86.05 45.85
12 5 0 409.88 66.75
12 5 1 181.14 47.48
12 5 2 236.45 51.78
12 5 3 351.59 58.28
12 5 4 86.2 42.1
12 5 5 575.86 76.54
12 5 6 58.19 38.27
12 5 7 385.52 69.03
12 5 8 49.66 29.56
12 5 9 132.17 43.85
12 5 10 90.25 37.23
12 5 11 28.03 21.4
12 5 12 233.98 59.87
12 5 13 13.41 23.89
12 5 14 204.27 55.08
12 6 -9 44.37 20.08
12 6 -8 74.65 30.34
12 6 -7 91.49 38.31
12 6 -6 32.07 27.72
12 6 -5 164.23 49.95
12 6 -4 71.51 38.11
12 6 -3 245.9 55.07
12 6 -2 164.53 51.44
12 6 -1 543.39 83.22
12 6 0 459.26 73.92
12 6 1 447.39 71.3
12 6 2 468.15 73.22
12 6 3 110.76 42.63
12 6 4 250.47 57.1
12 6 5 76.86 39.65
12 6 6 66.96 33.37
12 6 7 132.98 43.46
12 6 8 109 42.7
12 6 9 117.27 37.22
12 6 10 57.76 36.91
12 6 11 141.06 44.89
12 6 12 51.51 36.12
12 6 13 207.15 57.88
12 7 -6 319.5 62.17
12 7 -5 51.11 41.53
12 7 -4 371.09 73.37
12 7 -3 141.05 54.43
12 7 -2 264.81 65.4
12 7 -1 241.36 62.12
12 7 0 69.62 39.04
12 7 1 191.77 51.27
12 7 2 54.81 35.09
12 7 3 256.13 57.28
12 7 4 133.42 50.79
12 7 5 281.88 60.35
12 7 6 180.81 51.7
12 7 7 100.74 42.97
12 7 8 304.32 65.47
12 7 9 31.79 31.29
12 7 10 294.55 62.7
12 7 11 20.46 28.62
12 7 12 105.93 44.89
12 7 13 106.42 38.64
12 8 -6 60.23 38.1
12 8 -5 200.83 58.87
12 8 -4 107.66 43.12
12 8 -3 87.04 41.54
12 8 -2 318.85 69.09
12 8 -1 138.88 55.1
12 8 0 298.33 62.51
12 8 1 131.21 51.3
12 8 2 316.22 62.93
12 8 3 105.72 46.54
12 8 4 200.66 53.68
12 8 5 127.14 41.34
12 8 6 18.22 26.47
12 8 7 267.91 61.2
12 8 8 70.32 40.9
12 8 9 266.42 64.02
12 8 10 131.36 50
12 8 11 78.67 40
12 8 12 107.51 44.89
12 9 -6 357.91 78.55
12 9 -5 386.05 80.38
12 9 -4 118.6 52.94
12 9 -3 317.51 69.21
12 9 -2 98.78 56.68
12 9 -1 309.43 70.22
12 9 0 184.43 61.91
12 9 1 322.51 73.17
12 9 2 332.11 74.05
12 9 3 170.65 55.94
12 9 4 221.34 54.64
12 9 5 112.8 51.5
12 9 6 346.79 73.89
12 9 7 111.45 49.29
12 9 8 262.34 62.81
12 9 9 194.03 53.12
12 9 10 112.25 44.26
12 10 -6 156.83 53.47
12 10 -5 62.44 39.03
12 10 -4 307.71 71.57
12 10 -3 80.33 45.01
12 10 -2 276 60.55
12 10 -1 268.19 70.18
12 10 0 341.5 75.24
12 10 1 350.71 76.01
12 10 2 268.92 70.22
12 10 3 486.57 83.88
12 10 4 166.91 56.55
12 10 5 322.84 68.13
12 10 6 117.06 45.25
12 10 7 243.4 61.93
12 10 8 198.24 58.79
12 11 -1 108.64 48.9
12 11 0 174.52 54.72
12 11 1 37.76 31.14
12 11 2 80.46 37.77
12 11 3 147.29 59.02
12 11 4 295.59 69.74
13 -5 -11 49.09 34.75
13 -5 -10 32.57 34.69
13 -5 -10 -21.66 36.16
13 -5 -9 140.93 47.43
13 -5 -9 148.65 53.14
13 -5 -8 33.68 29.9
13 -5 -8 116.84 52.8
13 -5 -7 247.86 61.69
13 -5 -6 78.87 38.63
13 -5 -5 514.46 84.86
13 -5 -4 134.27 48.07
13 -5 -3 223.83 60.07
13 -5 -2 238.74 62.03
13 -5 -1 3.63 27.25
13 -5 0 165.49 50.71
13 -5 1 94.94 46.21
13 -5 1 99.57 45.29
13 -5 2 313.09 63.7
13 -5 3 244.52 58.3
13 -5 4 96.09 40.43
13 -4 -12 230.76 59.59
13 -4 -11 -63.18 47.58
13 -4 -10 122.28 42.59
13 -4 -10 195.48 57.2
13 -4 -9 51.23 32.81
13 -4 -9 4.07 24.6
13 -4 -8 118.17 43.24
13 -4 -8 131.88 45.95
13 -4 -7 106.03 46.21
13 -4 -6 193.03 48.39
13 -4 -5 240.03 57.7
13 -4 -4 92.97 42.77
13 -4 -3 371.49 69.47
13 -4 -3 508.26 81.28
13 -4 -2 77.12 31.05
13 -4 -2 104.09 40.39
13 -4 -1 432.06 74.59
13 -4 -1 444.64 77.36
13 -4 0 112.08 38.86
13 -4 0 103.85 48.3
13 -4 1 327.99 65.72
13 -4 1 327.83 66.64
13 -4 2 204.83 48.97
13 -4 2 140.47 42.73
13 -4 3 74.55 34.8
13 -4 3 100.9 38.81
13 -4 4 179.81 54.56
13 -4 5 39.59 27.18
13 -4 6 121.26 40.17
13 -4 7 10.96 23.62
13 -4 8 135.48 44.43
13 -4 9 -5.71 25.47
13 -3 -14 0.43 32.61
13 -3 -13 123.94 50.07
13 -3 -12 80.16 46.17
13 -3 -9 210.63 51.35
13 -3 -8 96.01 34.7
13 -3 -7 347.12 64.1
13 -3 -7 201.01 56.23
13 -3 -6 331.29 64.37
13 -3 -6 373.68 67.41
13 -3 -6 301.69 68.08
13 -3 -5 48.75 29.42
13 -3 -5 32.77 23.65
13 -3 -5 59.55 36.73
13 -3 -4 438.07 76.92
13 -3 -4 408.78 71.05
13 -3 -4 444.14 73.37
13 -3 -3 41.41 35.25
13 -3 -3 86.63 38.23
13 -3 -3 46.86 35
13 -3 -2 230.21 55.36
13 -3 -2 122.81 44.41
13 -3 -2 99.17 43.23
13 -3 -1 145.92 46.81
13 -3 -1 85.43 38.91
13 -3 -1 153.54 48.56
13 -3 0 136.53 45.46
13 -3 0 163.91 48.01
13 -3 0 124.95 39.23
13 -3 1 255.21 55.7
13 -3 1 227.91 57.94
13 -3 1 303.15 58.17
13 -3 2 82.3 34.37
13 -3 3 341.24 63.34
13 -3 4 45.41 36.82
13 -3 5 278.9 63.14
13 -3 6 121.62 45.51
13 -3 7 124.95 43.63
13 -3 8 212.06 52.67
13 -3 9 35.85 31.57
13 -3 10 152.74 46.79
13 -3 11 23.9 22.42
13 -2 -10 397.64 81.52
13 -2 -9 193.54 54.26
13 -2 -8 319.83 63.85
13 -2 -8 247.47 63.7
13 -2 -7 311.53 64.62
13 -2 -7 252.81 52.8
13 -2 -7 272.91 62.71
13 -2 -6 52.26 31.71
13 -2 -6 56.16 32.54
13 -2 -6 11.74 20.97
13 -2 -5 225.3 54.24
13 -2 -5 208.69 48.8
13 -2 -5 204.94 52.14
13 -2 -4 109.13 42.08
13 -2 -4 66.75 33.95
13 -2 -4 53.15 29.45
13 -2 -3 155.14 49.17
13 -2 -3 127.82 41.12
13 -2 -3 139.61 41.45
13 -2 -2 222.3 53.06
13 -2 -2 175.69 47.22
13 -2 -2 143.31 41.55
13 -2 -1 159.53 46.2
13 -2 -1 120.7 40.29
13 -2 -1 69.67 35.75
13 -2 0 249.36 54.2
13 -2 0 265.1 57.1
13 -2 0 200.09 47.51
13 -2 1 72.7 35.56
13 -2 1 51.01 31.57
13 -2 2 155.24 44.93
13 -2 2 185.27 49.19
13 -2 3 17.74 22.93
13 -2 4 143.25 42.78
13 -2 5 145.17 44.44
13 -2 6 72.73 29.61
13 -2 7 502.99 76.27
13 -2 8 13.31 28.33
13 -2 9 394.98 67.38
13 -2 10 96.56 39.17
13 -2 11 121.38 37.81
13 -2 12 21.15 21.36
13 -2 13 24.55 24.69
13 -1 -10 201.3 56.76
13 -1 -9 54.13 40.49
13 -1 -9 77.36 39.04
13 -1 -8 252.61 60.05
13 -1 -8 206.76 57.4
13 -1 -7 -18.33 21.85
13 -1 -7 -19.9 30.11
13 -1 -7 47.5 35.6
13 -1 -6 289.33 61.51
13 -1 -6 285.45 51.82
13 -1 -6 322.64 66.17
13 -1 -5 158.4 51.64
13 -1 -5 144.81 40.79
13 -1 -5 244.68 59.17
13 -1 -4 49.12 28.68
13 -1 -4 71.87 24.49
13 -1 -4 94.05 42.12
13 -1 -3 256.8 59.13
13 -1 -3 133.66 35.51
13 -1 -3 173.8 51.79
13 -1 -2 38.09 30.07
13 -1 -2 24.26 22.87
13 -1 -2 35.79 26.78
13 -1 -1 252.26 55.76
13 -1 -1 212.28 49.78
13 -1 -1 223.97 53.28
13 -1 0 -2.1 20.75
13 -1 0 22.14 24.96
13 -1 1 190.7 48.65
13 -1 1 137.25 42.09
13 -1 2 48.62 34.75
13 -1 2 62.38 21.6
13 -1 3 292.08 59.55
13 -1 3 192.73 42.86
13 -1 4 162.94 39.25
13 -1 5 51.73 29.52
13 -1 6 261.55 58.56
13 -1 7 67.3 31.4
13 -1 8 162 40.92
13 -1 8 208.65 49.74
13 -1 9 34.96 20.24
13 -1 9 128.76 43.5
13 -1 10 94.58 36.2
13 -1 10 58.95 25.74
13 -1 11 107.73 38.53
13 -1 11 74.16 35.83
13 -1 12 17.1 20.96
13 -1 13 25.07 24.77
13 0 -11 343.34 76.25
13 0 -10 -41.21 30.42
13 0 -10 35.01 24.91
13 0 -9 215.48 46.67
13 0 -9 263.24 62.77
13 0 -8 96.21 41.45
13 0 -8 40.8 25.79
13 0 -7 170.3 46.12
13 0 -7 238.91 56.91
13 0 -6 97.73 40.36
13 0 -6 65.05 34.15
13 0 -5 48.11 28.55
13 0 -5 38.3 29.99
13 0 -5 50.79 22.44
13 0 -4 314.84 62.48
13 0 -4 306.92 61.15
13 0 -4 379.47 60.76
13 0 -3 35.91 29.18
13 0 -3 -13.68 22.02
13 0 -3 17.76 18.88
13 0 -2 278.75 57.35
13 0 -2 405.5 68.34
13 0 -2 307.33 53.36
13 0 -1 34.81 26.86
13 0 -1 103.58 38.27
13 0 0 216.63 49.1
13 0 0 391.32 67.61
13 0 1 117.01 37.92
13 0 1 191.08 49.36
13 0 2 114.45 34.15
13 0 2 154.76 47.13
13 0 3 73.82 28.82
13 0 3 144.48 48.41
13 0 4 26.4 27.01
13 0 4 13.25 27.95
13 0 4 65.05 23.06
13 0 5 129.85 33.02
13 0 6 29.16 23.87
13 0 7 177.19 41.15
13 0 8 146.47 34.66
13 0 9 57.45 31.51
13 0 10 167.34 41.6
13 0 11 28.24 28.74
13 0 12 71.46 33.84
13 0 13 -30.64 28.48
13 1 -11 7.05 25.12
13 1 -11 73.8 49.77
13 1 -10 189.97 53.34
13 1 -10 285.73 69.48
13 1 -9 69.9 37.49
13 1 -9 4.03 27.23
13 1 -8 242.95 57.63
13 1 -8 261.7 56.62
13 1 -7 384.44 75.32
13 1 -7 276.54 63.02
13 1 -6 67.56 37.39
13 1 -6 136.76 46.78
13 1 -5 490.27 72.97
13 1 -5 577.08 85.68
13 1 -4 64.69 33.74
13 1 -4 104.26 41.48
13 1 -4 78.46 31.71
13 1 -3 229.49 53.81
13 1 -3 237.08 54.58
13 1 -3 244.24 47.08
13 1 -2 153.57 43.62
13 1 -2 129.52 39.83
13 1 -1 115.6 41.08
13 1 -1 124.18 42.25
13 1 0 233.71 50.73
13 1 0 194.31 38.91
13 1 0 237.37 55.32
13 1 1 106.91 36.72
13 1 1 100.17 30.05
13 1 1 81.93 33.31
13 1 2 196.39 39.78
13 1 2 267.04 48.02
13 1 3 76.89 31.8
13 1 3 89.83 31.73
13 1 4 368.75 59.39
13 1 4 393.27 57.71
13 1 5 170.3 42.84
13 1 5 121.57 37.19
13 1 6 290.1 52.67
13 1 7 301.88 55.89
13 1 8 17.77 23.55
13 1 9 337.27 59.43
13 1 10 36.52 22.76
13 1 11 69.48 32.96
13 1 12 -15.78 28.83
13 1 13 102.53 42.9
13 2 -12 -51.68 33.84
13 2 -11 257.85 64.64
13 2 -11 178.22 48.78
13 2 -10 76.47 39.28
13 2 -10 57.56 30.25
13 2 -9 137.58 48.04
13 2 -9 219.71 51.39
13 2 -8 293.76 70.17
13 2 -8 136.67 45.12
13 2 -7 -6.77 25.65
13 2 -7 55.78 28.88
13 2 -6 229.96 55.32
13 2 -6 264.84 59.07
13 2 -5 30.09 34.02
13 2 -5 53.59 28.63
13 2 -4 84.65 39.87
13 2 -4 105.16 35.11
13 2 -3 91.91 32.77
13 2 -3 72.85 32.3
13 2 -3 33.6 32.24
13 2 -3 51.68 25.54
13 2 -2 140.36 39.63
13 2 -2 275.88 47.02
13 2 -1 265.97 46.92
13 2 0 121.89 36.02
13 2 1 381.52 55.05
13 2 2 121.09 33.41
13 2 3 86.46 29.1
13 2 4 128.76 32.81
13 2 5 84.44 31.75
13 2 6 203.81 45.87
13 2 7 43.94 26.23
13 2 8 298.27 58.27
13 2 9 66.65 33.65
13 2 10 213.48 52.18
13 2 11 178.16 47.75
13 2 12 29.41 21.87
13 2 13 96.77 36.48
13 3 -12 103.85 41.88
13 3 -11 183.89 58.49
13 3 -11 192.66 51.33
13 3 -10 123.98 45.72
13 3 -10 76.13 32.3
13 3 -9 278.77 62.97
13 3 -9 170.78 48.51
13 3 -8 -70.56 29.11
13 3 -8 -20.23 28.99
13 3 -7 340.77 70.32
13 3 -7 316.22 64.04
13 3 -6 16.77 29.56
13 3 -6 193.71 49.85
13 3 -5 684.93 83.27
13 3 -5 506.52 75.21
13 3 -4 518.25 79.37
13 3 -4 634.85 79.46
13 3 -3 583.16 76.01
13 3 -2 895.74 90.98
13 3 -1 306.9 59.83
13 3 0 698.59 77.91
13 3 1 424.54 66.35
13 3 2 754.6 81.55
13 3 3 710.84 81.65
13 3 4 272.78 54.58
13 3 5 592.98 75.94
13 3 6 133.96 42.44
13 3 7 284.78 56.06
13 3 8 18.98 17.73
13 3 9 89.98 37.27
13 3 10 172.14 46.81
13 3 11 35.03 27.89
13 3 12 170.19 49.97
13 3 13 63.39 33.86
13 4 -11 50.73 25.89
13 4 -10 186.3 51.13
13 4 -10 175.27 48.98
13 4 -9 75.76 39.51
13 4 -9 38.68 34.83
13 4 -9 0.57 25.95
13 4 -8 276.38 55.72
13 4 -8 293.72 59.02
13 4 -7 202.32 52.79
13 4 -7 183.96 50.01
13 4 -6 146.43 43.12
13 4 -6 101.4 40.57
13 4 -5 278.44 58.29
13 4 -5 449 72.93
13 4 -4 56.29 44.64
13 4 -3 255.96 53.09
13 4 -2 163.43 46.31
13 4 -1 287.19 54.55
13 4 0 176.98 45.58
13 4 1 227.36 48.8
13 4 2 141.69 42.27
13 4 3 47.6 26.02
13 4 4 181.23 41.24
13 4 5 60.62 32.63
13 4 6 319.87 60.32
13 4 7 113.45 42.79
13 4 8 239.17 58.25
13 4 9 164.61 46.69
13 4 10 30.91 34.81
13 4 11 217.5 54.87
13 4 12 12.67 24.99
13 5 -10 56.68 33.48
13 5 -10 32.7 24.62
13 5 -9 196.49 51.74
13 5 -9 114.6 34.85
13 5 -8 97.29 35.22
13 5 -8 192.8 52.15
13 5 -7 2.49 20.08
13 5 -7 6.31 23.46
13 5 -6 300.78 58.51
13 5 -6 374.22 68.52
13 5 -5 142.24 48.93
13 5 -4 455.73 72.38
13 5 -3 195.43 52.11
13 5 -2 329.6 61.73
13 5 -1 360.4 65.55
13 5 0 200.49 52.47
13 5 1 491.52 74.53
13 5 2 179.73 53.71
13 5 3 427.22 70.29
13 5 4 233.43 57.59
13 5 5 281.02 59.77
13 5 6 106.36 40.71
13 5 7 169.52 47.76
13 5 8 246.34 56.31
13 5 9 47.64 28.21
13 5 10 279.27 63.41
13 5 11 40.99 31.48
13 5 12 143.52 47.57
13 6 -9 230.11 50.25
13 6 -9 210.15 56
13 6 -8 119.69 45.15
13 6 -8 7.45 22.95
13 6 -7 358.87 69.53
13 6 -6 113.36 46.86
13 6 -5 318.75 65.26
13 6 -4 190.89 56.43
13 6 -3 300.44 64.2
13 6 -2 420.35 73.84
13 6 -1 233.28 59.65
13 6 0 159.8 48.74
13 6 1 144.18 50.53
13 6 2 384.31 67.91
13 6 3 219.03 60.2
13 6 4 304.23 63.8
13 6 5 320.7 64.06
13 6 6 117.76 46.69
13 6 7 421.95 73.47
13 6 8 59.67 35.11
13 6 9 338.59 66.38
13 6 10 76.56 41.84
13 6 11 183.28 59.73
13 7 -9 -1.6 24.32
13 7 -8 64.12 32.22
13 7 -8 79.1 38.36
13 7 -7 57.07 40.71
13 7 -6 243.12 62.12
13 7 -5 158.26 55.38
13 7 -4 308.97 70.23
13 7 -3 575.89 91.87
13 7 -2 219.68 68.56
13 7 -1 348.51 69.68
13 7 0 108.19 44.67
13 7 1 122.74 38.83
13 7 2 108.37 44.64
13 7 3 257.05 65.42
13 7 4 452.79 76.01
13 7 5 125.36 47.47
13 7 6 400.87 72.27
13 7 7 66.87 43.27
13 7 8 213.49 57.28
13 7 9 78.37 37.24
13 7 10 67.94 31.09
13 8 -8 127.79 46.99
13 8 -7 145.11 52.09
13 8 -6 272.06 69.56
13 8 -5 38.82 41.47
13 8 -4 369.47 76.74
13 8 -3 279.01 77.91
13 8 -2 472 86.5
13 8 -1 387.31 79.71
13 8 0 364.64 74.68
13 8 1 236.67 62.79
13 8 2 158.29 54.86
13 8 3 377.72 73.94
13 8 4 200.62 64.05
13 8 5 448.82 82.28
13 8 6 80.78 35.49
13 8 7 303.9 66.6
13 8 8 181.07 56.36
13 8 9 105.27 38.57
13 9 -6 61.08 41.13
13 9 -5 349.1 77.4
13 9 -4 215.73 67.18
13 9 -3 418.11 81.45
13 9 -2 349.75 80.29
13 9 -1 307.54 78.92
13 9 0 312.66 73.6
13 9 1 126.63 54.97
13 9 2 316.77 71.45
13 9 3 115.49 51.81
13 9 4 527.77 89.58
13 9 5 350.49 76.28
13 9 6 318.77 69.76
14 -4 -8 94.98 37.53
14 -4 -7 117.76 43.95
14 -4 -6 55.45 34.79
14 -4 -5 217.44 52.74
14 -4 -4 81.5 38.74
14 -4 -3 131.03 48.89
14 -3 -7 -41.15 32.21
14 -3 -6 86.07 36.66
14 -3 -5 114.31 43.74
14 -3 -4 72.9 39.89
14 -3 -4 62.52 38.01
14 -3 -3 87.47 42.83
14 -3 -3 26.23 22.04
14 -3 -2 -2.1 26.46
14 -3 -2 59.05 30.87
14 -3 -1 67.51 33.5
14 -3 -1 37.47 25.29
14 -3 0 13.4 28.61
14 -3 0 54.6 34.34
14 -3 1 178.45 59.73
14 -3 2 -1.58 33.68
14 -2 -6 67.58 24.75
14 -2 -6 75.07 32.41
14 -2 -5 116.41 38.73
14 -2 -5 56.88 33.65
14 -2 -4 244.03 58.5
14 -2 -4 154.57 49.43
14 -2 -3 93.32 42.06
14 -2 -3 63.03 37.51
14 -2 -2 253.01 58.26
14 -2 -2 153.17 45.71
14 -2 -1 30.15 21.73
14 -2 -1 37.13 26.29
14 -2 0 203.73 54.06
14 -2 0 176.39 50.16
14 -2 1 102.02 48.44
14 -2 1 14.54 18
14 -1 -7 123.53 52.62
14 -1 -6 79.37 39.19
14 -1 -6 81.65 33.75
14 -1 -5 193.72 55.73
14 -1 -5 200.77 47.35
14 -1 -5 241.66 65.27
14 -1 -4 44.09 30.52
14 -1 -4 30.52 24.93
14 -1 -4 66.18 37.32
14 -1 -3 97.33 35.72
14 -1 -3 146.23 44.78
14 -1 -3 74.6 27.59
14 -1 -2 52.56 37.46
14 -1 -2 54.49 33.69
14 -1 -2 74.89 38.08
14 -1 -1 54.83 37.3
14 -1 -1 25.39 22.53
14 -1 -1 -11.86 21.55
14 -1 0 19.57 23.93
14 -1 0 22.27 27.09
14 -1 1 -11.11 23.59
14 -1 1 56.66 29.16
14 -1 2 131.87 42.62
14 -1 2 95.35 33.86
14 -1 3 13.26 26.87
14 -1 4 211.38 52.37
14 -1 5 77.76 48.44
14 0 -9 60.32 34.51
14 0 -8 161.73 52.88
14 0 -7 10.18 37.73
14 0 -7 54.1 37.29
14 0 -6 180.72 54.45
14 0 -6 196.43 60.49
14 0 -5 30.95 29.07
14 0 -5 23.68 29.81
14 0 -4 58.32 27.16
14 0 -4 124.52 44.63
14 0 -3 -1.33 28.48
14 0 -3 50.35 26.02
14 0 -3 88.55 41.28
14 0 -2 119.36 44.54
14 0 -2 196.69 58.76
14 0 -2 158.76 45.67
14 0 -1 199.61 51.36
14 0 -1 189.25 46.44
14 0 -1 185.87 45.68
14 0 0 2.69 19.38
14 0 0 93.47 42.32
14 0 1 164.81 42.81
14 0 1 191.05 51.54
14 0 2 29.58 19.58
14 0 2 50.75 33.68
14 0 3 34.03 23.88
14 0 3 126.41 46.08
14 0 4 111.87 44.25
14 0 5 65.78 33.59
14 0 6 225.28 55.18
14 0 7 -3.71 27.81
14 0 10 36.53 23
14 0 11 45.77 31.48
14 1 -11 1.67 33.37
14 1 -10 56.03 32.47
14 1 -9 88.36 45.83
14 1 -8 -18.2 26.41
14 1 -7 449.03 84.63
14 1 -7 394.06 74.91
14 1 -6 95.88 43.35
14 1 -6 41.52 27.04
14 1 -5 202.43 51.01
14 1 -5 235.84 58.89
14 1 -4 101.33 45.45
14 1 -4 204.44 52.08
14 1 -3 -16.19 33.54
14 1 -3 71.27 30.37
14 1 -2 222.14 52.93
14 1 -2 246.43 57.81
14 1 -2 208.55 45.61
14 1 -1 10.12 21.85
14 1 -1 22.92 33.72
14 1 0 199.48 48.02
14 1 0 335.38 63.2
14 1 1 41.5 31.91
14 1 1 86.88 40.38
14 1 2 84.68 28.52
14 1 2 154.46 49.8
14 1 3 79.5 35.68
14 1 3 150.01 50.11
14 1 4 60.82 29.02
14 1 5 342.61 56.68
14 1 6 53.3 27.16
14 1 7 174.17 45.02
14 1 8 43.61 28.56
14 1 9 87.92 35.53
14 1 10 116.01 37.76
14 1 11 82.21 33.7
14 2 -12 122.89 43.16
14 2 -11 67.93 37.54
14 2 -10 336.83 68.23
14 2 -9 -39.21 37.93
14 2 -8 146.53 41.15
14 2 -7 236.12 57.5
14 2 -7 161.71 48.28
14 2 -6 163.22 54.55
14 2 -6 213.65 55.11
14 2 -5 287.77 62.77
14 2 -5 374.27 71.83
14 2 -4 107.31 42.17
14 2 -4 113.92 40.09
14 2 -3 417.15 74.64
14 2 -3 514.82 82.34
14 2 -2 123.12 50.31
14 2 -2 120.9 47.64
14 2 -1 579.27 82.28
14 2 -1 498.94 77.28
14 2 0 394.76 68.84
14 2 0 337.65 69.23
14 2 1 280.77 60.65
14 2 1 409.71 59.57
14 2 2 307.44 51.44
14 2 3 185.56 44.39
14 2 4 383.82 61.1
14 2 5 90.75 34.7
14 2 6 280.74 56.76
14 2 7 21.51 23.04
14 2 8 212.21 52.18
14 2 9 76.52 38.6
14 2 10 32.47 30.11
14 2 11 166.23 50.02
14 3 -12 5.78 25.83
14 3 -11 73.32 32.81
14 3 -10 -49.17 29.54
14 3 -9 107.03 40.12
14 3 -8 149.28 50.46
14 3 -7 154.19 58.49
14 3 -7 189.24 52.09
14 3 -6 360.21 75.3
14 3 -6 459.21 79.97
14 3 -5 105.86 45.6
14 3 -5 2.66 24.43
14 3 -4 271.08 64.94
14 3 -4 229.91 58.52
14 3 -3 84.9 39.51
14 3 -2 75.72 36.73
14 3 -2 159.42 40.39
14 3 -1 155.13 41.62
14 3 0 143.78 41.04
14 3 1 237.43 48.24
14 3 2 131.39 37.81
14 3 3 158.31 41
14 3 4 86.11 32.77
14 3 5 241.62 51.93
14 3 6 173.69 47.32
14 3 7 70.46 33.59
14 3 8 253.69 54.88
14 3 9 12.17 22.73
14 3 10 126.01 42.72
14 3 11 -5.28 24.81
14 4 -11 0.5 22.23
14 4 -10 92.73 31.56
14 4 -9 82.59 40.6
14 4 -8 -26.34 26.95
14 4 -7 363.57 67.87
14 4 -6 -3.93 26.23
14 4 -5 170.79 49.7
14 4 -5 223.15 54.67
14 4 -4 8.05 22.56
14 4 -4 83.18 39.25
14 4 -3 207.03 49.5
14 4 -2 178.54 49.66
14 4 -1 276.28 57.93
14 4 0 567.02 77.65
14 4 1 171.87 49.89
14 4 2 414.82 67.62
14 4 3 256 53.86
14 4 4 128.3 36.62
14 4 5 180.06 45.44
14 4 6 86.42 34.99
14 4 7 288.31 60.09
14 4 8 21.85 27.72
14 4 9 191.08 51.67
14 4 10 67.59 37.66
14 5 -10 137.87 46.32
14 5 -9 1.19 26.19
14 5 -8 144.24 43.1
14 5 -8 122.3 47.98
14 5 -7 37.17 31.34
14 5 -7 12.95 22.84
14 5 -6 269.36 63.39
14 5 -6 195.65 53.53
14 5 -5 144 50.49
14 5 -5 297.28 67.49
14 5 -4 195.66 54.31
14 5 -3 515.31 80.98
14 5 -2 263.42 63.25
14 5 -1 503.26 78
14 5 0 226.93 56.97
14 5 1 468.71 73.54
14 5 2 261.95 57.85
14 5 3 384.33 67.9
14 5 4 323.29 61.62
14 5 5 118.96 47.05
14 5 6 304.35 62.11
14 5 7 100.86 48.03
14 5 8 307.39 66.46
14 5 9 40.51 27.67
14 6 -10 32.15 35.04
14 6 -9 257.96 68.64
14 6 -9 100.17 44.18
14 6 -8 65.58 33.01
14 6 -8 81.22 51.33
14 6 -7 74.51 32.46
14 6 -7 158.88 49.46
14 6 -6 245.46 65.11
14 6 -6 124.07 44.63
14 6 -5 153.51 54.16
14 6 -4 549.09 86.72
14 6 -3 342.42 72.46
14 6 -2 452.75 77.09
14 6 -1 206.84 58.42
14 6 0 282.66 60.47
14 6 1 219.99 55.27
14 6 2 137.82 55.14
14 6 3 463.16 77.56
14 6 4 143.45 50.99
14 6 5 409.37 74.57
14 6 6 52.76 33.42
14 6 7 306.81 66.26
14 6 8 171.25 50.74
14 7 -9 103.84 49.36
14 7 -8 190.02 55.99
14 7 -7 121.54 48.63
14 7 -7 230.6 65.22
14 7 -6 134.11 52.31
14 7 -5 234.83 58.84
14 7 -4 202.78 62.89
14 7 -3 343.89 73.67
14 7 -2 308.45 72.41
14 7 -1 170.56 54.13
14 7 0 159.74 50.22
14 7 1 84.46 44.27
14 7 2 175.87 55.92
14 7 3 141.63 55.32
14 7 4 229.42 61.21
14 7 5 165.86 56.62
14 7 6 241.8 62.34
14 8 -5 151.41 59.64
14 8 -4 440.5 90.71
14 8 -3 460.33 90.52
14 8 -2 440.49 88.34
14 8 -1 312.28 73.26
14 8 0 83.76 45.56
14 8 1 234.52 65.28
14 8 2 206.3 58.98
14 8 3 239.96 60.55
14 8 4 275.65 68
15 -2 -4 74.93 33.46
15 -2 -3 35.59 33.97
15 -2 -2 20.3 28.81
15 -2 -2 -39.27 36.54
15 -2 -1 55.11 32.96
15 -1 -3 88.53 35.51
15 -1 -2 227.54 55.72
15 -1 -2 186.88 50.34
15 -1 -1 36.8 24.26
15 -1 -1 35.62 33.99
15 -1 0 87.51 36.72
15 -1 0 59.44 34.63
15 -1 1 26.02 29.87
15 0 -3 173.57 56.02
15 0 -2 -33.16 24.91
15 0 -1 161.98 49.2
15 0 -1 129.87 46.61
15 0 0 52.03 20.94
15 0 0 115.29 42.4
15 0 1 5.06 21.99
15 1 -3 65.22 32.13
15 1 -2 163.43 49.94
15 1 -1 202.34 56.18
15 1 0 187.96 50.41
15 1 1 196.28 51.01
15 1 2 66.49 39.57
15 1 3 91.15 38.48
15 2 -3 74.39 35.97
15 2 -2 149.55 49.13
15 2 -1 131.11 46.37
15 2 0 282.25 62.33
15 2 1 54.72 30.66
15 2 2 96.07 36.6
15 2 3 235.88 54.94
15 2 4 140.87 45.89
15 2 7 174.52 47.64
15 2 8 11.65 20.28
15 3 -2 82.72 45.11
15 3 -1 354.78 73.51
15 3 3 177.86 48.45
15 3 4 134.4 40.78
15 3 5 44.64 31.16
15 3 6 66.92 33.07
15 3 7 -49 32.08
15 3 8 102.68 40.03
15 4 0 260 56.85
15 4 1 222.75 53.82
15 4 2 138.13 44.42
15 4 3 301.37 58.67
15 4 4 122.42 43
15 4 5 315.45 60.13
15 4 6 3.88 25.88
15 4 7 110.96 37.91
15 5 -3 152.91 51.42
15 5 -2 237.18 58.45
15 5 -1 185.81 53.62
15 5 0 199.27 51.7
15 5 1 73.76 38.98
15 5 2 154.77 48
15 5 3 64.93 34.28
15 5 4 94.14 36.45
15 5 5 98.09 41.2
15 5 6 173.4 47.17
15 6 -6 311.3 73.02
15 6 -5 129.42 47.77
15 6 -4 164.82 51.12
15 6 -3 140.79 50.2
15 6 -2 239.53 59.39
15 6 -1 209.66 58.06
15 6 0 28.01 32.61
15 6 1 220.84 59.71
15 6 2 237.64 62.42
15 6 3 265.01 60.08
15 6 4 170.55 48.3

_iucr_refine_instructions_details 
;

    exp_2599.res created by SHELXL-2014/7

TITL exp_2599_a.res in P-1
REM Old TITL exp_2599 in P-1
REM SHELXT solution in P-1
REM R1 0.149, Rweak 0.055, Alpha 0.093, Orientation as input
REM Formula found by SHELXT: C60 B F20 Dy
CELL 0.71073 11.7138 12.5054 20.0304 82.986 89.896 79.61
ZERR 2 0.0004 0.0005 0.0017 0.005 0.004 0.003
LATT 1
SFAC C H B Dy F
UNIT 116 116 2 2 40
SIMU 0.01 0.01 2 C23 C24
SIMU 0.01 0.02 2 C20 C27
ISOR 0.005 0.01 C20
 
L.S. 20
PLAN  10
FREE Dy1 C12
FREE Dy1 C30
BOND $H
list 4
fmap 2
acta
ABIN
OMIT -3 52
REM <olex2.extras>
REM <HklSrc "%.\\exp_2599.hkl">
REM </olex2.extras>
 
WGHT    0.031100    8.432099
FVAR       0.38911
DY1   4    0.121828    0.316530    0.284728    11.00000    0.01546    0.01741 =
         0.03377   -0.00518    0.00185   -0.00532
C1    1   -0.066797    0.302327    0.358243    11.00000    0.01392    0.02112 =
         0.03927   -0.00713    0.00356   -0.00993
C2    1    0.001445    0.196204    0.357511    11.00000    0.01305    0.02671 =
         0.02985    0.00325   -0.00537   -0.00778
AFIX  43
H2    2    0.040548    0.154017    0.394838    11.00000   -1.20000
AFIX   0
C3    1    0.001822    0.163666    0.292735    11.00000    0.00646    0.01872 =
         0.04328   -0.00544    0.00552   -0.00344
C4    1   -0.065406    0.254032    0.249608    11.00000    0.01428    0.01697 =
         0.04101   -0.00441   -0.00067   -0.00427
C5    1   -0.106052    0.336092    0.291686    11.00000    0.01456    0.01508 =
         0.04632   -0.00549   -0.00219   -0.00643
AFIX  43
H5    2   -0.152553    0.403289    0.276946    11.00000   -1.20000
AFIX   0
C6    1   -0.113403    0.355916    0.420013    11.00000    0.02053    0.03154 =
         0.04039   -0.01172    0.00887   -0.00270
C7    1   -0.158620    0.480531    0.401240    11.00000    0.04393    0.03455 =
         0.04674   -0.01218    0.00301    0.00184
AFIX 137
H7A   2   -0.095522    0.515627    0.385413    11.00000   -1.50000
H7B   2   -0.190889    0.511473    0.440202    11.00000   -1.50000
H7C   2   -0.217407    0.491548    0.366497    11.00000   -1.50000
AFIX   0
C8    1   -0.214930    0.305018    0.444289    11.00000    0.05447    0.05524 =
         0.07263   -0.02406    0.03845   -0.01674
AFIX 137
H8A   2   -0.267512    0.307139    0.407245    11.00000   -1.50000
H8B   2   -0.254280    0.345039    0.478152    11.00000   -1.50000
H8C   2   -0.187957    0.230309    0.463002    11.00000   -1.50000
AFIX   0
C9    1   -0.022055    0.343431    0.474041    11.00000    0.04151    0.09864 =
         0.04074   -0.02816   -0.00840    0.01375
AFIX 137
H9A   2    0.008496    0.267061    0.486561    11.00000   -1.50000
H9B   2   -0.055524    0.374892    0.512572    11.00000   -1.50000
H9C   2    0.039416    0.380336    0.457619    11.00000   -1.50000
AFIX   0
C10   1    0.082402    0.057310    0.277441    11.00000    0.01657    0.01903 =
         0.04529   -0.00772    0.00406   -0.00783
C11   1    0.029024   -0.007436    0.229775    11.00000    0.03246    0.02013 =
         0.06070   -0.01569   -0.00290   -0.01109
AFIX 137
H11A  2   -0.041835   -0.025516    0.248136    11.00000   -1.50000
H11B  2    0.082442   -0.073560    0.224419    11.00000   -1.50000
H11C  2    0.012907    0.036061    0.186804    11.00000   -1.50000
AFIX   0
C12   1    0.194457    0.092672    0.246810    11.00000    0.03005    0.01808 =
         0.05249   -0.01389    0.01619    0.00171
AFIX 137
H12A  2    0.173806    0.146308    0.208213    11.00000   -1.50000
H12B  2    0.245120    0.029881    0.233550    11.00000   -1.50000
H12C  2    0.233379    0.123581    0.279821    11.00000   -1.50000
AFIX   0
C13   1    0.118538   -0.020664    0.341440    11.00000    0.02715    0.02005 =
         0.05925    0.00258   -0.00221   -0.00172
AFIX 137
H13A  2    0.162522    0.013303    0.370362    11.00000   -1.50000
H13B  2    0.165300   -0.086989    0.330075    11.00000   -1.50000
H13C  2    0.050562   -0.037437    0.364210    11.00000   -1.50000
AFIX   0
C14   1   -0.107161    0.269334    0.176127    11.00000    0.02550    0.02635 =
         0.03677   -0.00548   -0.00054   -0.00966
C15   1   -0.168937    0.389115    0.153809    11.00000    0.05198    0.02876 =
         0.04090   -0.00178   -0.01922   -0.01207
AFIX 137
H15A  2   -0.234623    0.407140    0.181701    11.00000   -1.50000
H15B  2   -0.194615    0.396153    0.107734    11.00000   -1.50000
H15C  2   -0.115745    0.438064    0.158202    11.00000   -1.50000
AFIX   0
C16   1   -0.197394    0.197014    0.166962    11.00000    0.02502    0.03819 =
         0.05229   -0.00583   -0.01124   -0.01382
AFIX 137
H16A  2   -0.163596    0.121618    0.180348    11.00000   -1.50000
H16B  2   -0.221788    0.206514    0.120554    11.00000   -1.50000
H16C  2   -0.263248    0.217666    0.194250    11.00000   -1.50000
AFIX   0
C17   1   -0.008315    0.245880    0.126526    11.00000    0.04368    0.03616 =
         0.03945   -0.00095    0.00475   -0.01006
AFIX 137
H17A  2    0.052226    0.284819    0.135794    11.00000   -1.50000
H17B  2   -0.037490    0.269480    0.081369    11.00000   -1.50000
H17C  2    0.022112    0.168679    0.131409    11.00000   -1.50000
AFIX   0
C18   1    0.311674    0.304110    0.364506    11.00000    0.01283    0.02186 =
         0.04931   -0.00256   -0.00565   -0.01084
C19   1    0.242174    0.412223    0.359953    11.00000    0.01991    0.02668 =
         0.03653   -0.00969    0.00239   -0.00909
AFIX  43
H19   2    0.202955    0.441885    0.395745    11.00000   -1.20000
AFIX   0
C20   1    0.241334    0.467462    0.293899    11.00000    0.02146    0.01074 =
         0.02709   -0.00414   -0.00155   -0.01026
C21   1    0.309101    0.390600    0.253773    11.00000    0.01714    0.01884 =
         0.02794   -0.00166    0.00184   -0.00986
C22   1    0.350257    0.294041    0.298886    11.00000    0.01078    0.02097 =
         0.03709   -0.00727   -0.00040    0.00276
AFIX  43
H22   2    0.397130    0.231768    0.286285    11.00000   -1.20000
AFIX   0
C23   1    0.359385    0.228816    0.426465    11.00000    0.02649    0.04166 =
         0.03751    0.01177   -0.00927   -0.00862
C24   1    0.281553    0.228804    0.482980    11.00000    0.04978    0.10646 =
         0.06213    0.04060   -0.00027    0.00739
AFIX 137
H24A  2    0.269137    0.299430    0.498690    11.00000   -1.50000
H24B  2    0.315406    0.173923    0.518639    11.00000   -1.50000
H24C  2    0.208663    0.213051    0.468971    11.00000   -1.50000
AFIX   0
C25   1    0.474368    0.259674    0.444921    11.00000    0.04457    0.09040 =
         0.04816    0.02268   -0.02213   -0.02568
AFIX 137
H25A  2    0.523755    0.258441    0.406619    11.00000   -1.50000
H25B  2    0.511500    0.208137    0.481328    11.00000   -1.50000
H25C  2    0.460258    0.331875    0.458440    11.00000   -1.50000
AFIX   0
C26   1    0.397263    0.109208    0.410250    11.00000    0.12578    0.03713 =
         0.08155    0.02291   -0.04744   -0.01666
AFIX 137
H26A  2    0.331471    0.083840    0.393545    11.00000   -1.50000
H26B  2    0.427552    0.062858    0.450399    11.00000   -1.50000
H26C  2    0.456150    0.107089    0.376796    11.00000   -1.50000
AFIX   0
C27   1    0.161463    0.577754    0.275521    11.00000    0.03014    0.00829 =
         0.03258   -0.00527   -0.00183   -0.00214
C28   1    0.213611    0.659653    0.228249    11.00000    0.04428    0.01748 =
         0.05273    0.00019    0.00596   -0.00333
AFIX 137
H28A  2    0.280679    0.676194    0.249449    11.00000   -1.50000
H28B  2    0.157231    0.725606    0.217913    11.00000   -1.50000
H28C  2    0.235894    0.628940    0.187497    11.00000   -1.50000
AFIX   0
C29   1    0.125619    0.633441    0.338146    11.00000    0.03619    0.02547 =
         0.05271   -0.01708    0.00340   -0.00272
AFIX 137
H29A  2    0.082922    0.588639    0.367126    11.00000   -1.50000
H29B  2    0.077724    0.703648    0.324957    11.00000   -1.50000
H29C  2    0.193719    0.642978    0.361649    11.00000   -1.50000
AFIX   0
C30   1    0.047783    0.555282    0.244422    11.00000    0.03289    0.01932 =
         0.04855   -0.00840   -0.00028   -0.00482
AFIX 137
H30A  2    0.066006    0.517548    0.205720    11.00000   -1.50000
H30B  2   -0.003644    0.623550    0.231224    11.00000   -1.50000
H30C  2    0.010849    0.510881    0.277136    11.00000   -1.50000
AFIX   0
C31   1    0.348114    0.400032    0.180531    11.00000    0.03014    0.01568 =
         0.03771   -0.00760    0.00436   -0.00516
C32   1    0.246201    0.442358    0.129320    11.00000    0.04305    0.06636 =
         0.03249   -0.01492    0.00081   -0.01400
AFIX 137
H32A  2    0.188564    0.396679    0.136528    11.00000   -1.50000
H32B  2    0.274576    0.440300    0.084417    11.00000   -1.50000
H32C  2    0.212330    0.516317    0.135291    11.00000   -1.50000
AFIX   0
C33   1    0.405637    0.288494    0.161309    11.00000    0.05803    0.03753 =
         0.05804   -0.01966    0.03169   -0.01938
AFIX 137
H33A  2    0.470162    0.257930    0.191389    11.00000   -1.50000
H33B  2    0.432594    0.297353    0.116030    11.00000   -1.50000
H33C  2    0.350261    0.240185    0.164444    11.00000   -1.50000
AFIX   0
C34   1    0.438990    0.474308    0.170869    11.00000    0.03798    0.02660 =
         0.05632   -0.01525    0.01668   -0.01615
AFIX 137
H34A  2    0.405040    0.546755    0.179912    11.00000   -1.50000
H34B  2    0.465342    0.477125    0.125386    11.00000   -1.50000
H34C  2    0.503552    0.445605    0.201254    11.00000   -1.50000
AFIX   0
 
F1    5    0.576255    1.072217    0.241186    11.00000    0.03549    0.01653 =
         0.04727   -0.00808   -0.00227    0.00129
F2    5    0.683295    1.147297    0.335863    11.00000    0.05180    0.02833 =
         0.05354   -0.02210    0.00636   -0.00980
F3    5    0.845443    1.009917    0.419665    11.00000    0.03731    0.05190 =
         0.04533   -0.01741   -0.00342   -0.01942
F4    5    0.905411    0.796676    0.398432    11.00000    0.02751    0.05286 =
         0.03680   -0.00046   -0.00586   -0.00606
F5    5    0.802999    0.718756    0.301051    11.00000    0.02398    0.02334 =
         0.04351   -0.00007   -0.00296   -0.00085
F6    5    0.440159    0.910558    0.304675    11.00000    0.02717    0.01565 =
         0.04617   -0.00522    0.00724    0.00058
F7    5    0.348511    0.796887    0.405838    11.00000    0.02777    0.03737 =
         0.04288   -0.00642    0.01126    0.00261
F8    5    0.405410    0.573777    0.426331    11.00000    0.03235    0.04105 =
         0.04505    0.00688    0.00732   -0.01495
F9    5    0.554917    0.467692    0.341230    11.00000    0.03942    0.01647 =
         0.05251    0.00417    0.00331   -0.00679
F10   5    0.654928    0.577474    0.245032    11.00000    0.03067    0.01699 =
         0.04367   -0.00416    0.00834   -0.00322
F11   5    0.350994    0.847939    0.187236    11.00000    0.02218    0.03444 =
         0.04919    0.00363   -0.00160   -0.00853
F12   5    0.222752    0.991897    0.098120    11.00000    0.03427    0.07040 =
         0.05403    0.00887   -0.01243    0.00640
F13   5    0.316926    1.140472    0.016962    11.00000    0.07278    0.05249 =
         0.04895    0.01801   -0.01179    0.01718
F14   5    0.548376    1.144711    0.028794    11.00000    0.07758    0.03066 =
         0.04035    0.00576    0.01583   -0.00816
F15   5    0.681246    1.001502    0.120887    11.00000    0.03314    0.02342 =
         0.05446   -0.00360    0.01164   -0.01024
F16   5    0.534821    0.693555    0.125710    11.00000    0.03349    0.02744 =
         0.04090   -0.00932    0.00444   -0.01365
F17   5    0.652217    0.582108    0.034539    11.00000    0.06522    0.04095 =
         0.04125   -0.02211    0.00610   -0.02100
F18   5    0.881908    0.588683    0.015713    11.00000    0.05719    0.05429 =
         0.03782   -0.01278    0.01415    0.00066
F19   5    0.989480    0.709805    0.090302    11.00000    0.02819    0.06170 =
         0.05462   -0.01030    0.01202   -0.00244
F20   5    0.875358    0.822452    0.180459    11.00000    0.02949    0.03977 =
         0.04420   -0.01000    0.00423   -0.01646
C35   1    0.685844    0.891003    0.263963    11.00000    0.01824    0.01971 =
         0.03337   -0.00541    0.00592   -0.00462
C36   1    0.661290    0.998887    0.277516    11.00000    0.02317    0.01847 =
         0.03677   -0.00264    0.00181    0.00031
C37   1    0.713265    1.039968    0.327329    11.00000    0.03054    0.02160 =
         0.03775   -0.01010    0.00226   -0.00478
C38   1    0.794314    0.973304    0.368915    11.00000    0.02624    0.03474 =
         0.03557   -0.01728    0.00444   -0.01924
C39   1    0.824328    0.864690    0.358236    11.00000    0.01856    0.03946 =
         0.02415    0.00171    0.00232   -0.00458
C40   1    0.770622    0.826651    0.307542    11.00000    0.01646    0.02346 =
         0.03906   -0.00699    0.00427   -0.00314
C41   1    0.549740    0.752105    0.266863    11.00000    0.01713    0.02185 =
         0.03271   -0.00548    0.00224   -0.00822
C42   1    0.468506    0.799522    0.310387    11.00000    0.02849    0.00698 =
         0.05333   -0.00061    0.01933   -0.00008
C43   1    0.423125    0.744391    0.363980    11.00000    0.01633    0.02349 =
         0.04144   -0.00547   -0.00064   -0.00476
C44   1    0.450738    0.630418    0.375427    11.00000    0.02311    0.03386 =
         0.02775    0.00816    0.00056   -0.01051
C45   1    0.527275    0.577858    0.332190    11.00000    0.02360    0.01904 =
         0.03776   -0.00068   -0.00115   -0.00667
C46   1    0.576478    0.637935    0.281610    11.00000    0.01447    0.02301 =
         0.02575   -0.00678    0.00483   -0.00002
C47   1    0.524624    0.918799    0.160802    11.00000    0.02859    0.01144 =
         0.03330   -0.00569    0.00647   -0.00643
C48   1    0.407675    0.920649    0.150510    11.00000    0.03237    0.02037 =
         0.02800   -0.00150    0.00511   -0.00307
C49   1    0.337423    0.992564    0.103850    11.00000    0.02854    0.04166 =
         0.03710   -0.00765   -0.00045    0.00368
C50   1    0.384242    1.068933    0.062712    11.00000    0.05422    0.03092 =
         0.02571   -0.00377   -0.00337    0.01226
C51   1    0.501252    1.069864    0.069600    11.00000    0.05087    0.01457 =
         0.02801   -0.00005    0.00389   -0.00680
C52   1    0.567550    0.996891    0.116655    11.00000    0.04543    0.01653 =
         0.03802   -0.01315    0.00660    0.00307
C53   1    0.699060    0.761029    0.160113    11.00000    0.02330    0.01521 =
         0.02371    0.00310    0.00157   -0.00399
C54   1    0.649205    0.698414    0.119114    11.00000    0.03584    0.01895 =
         0.02915    0.00357    0.00629   -0.00261
C55   1    0.706502    0.640975    0.071167    11.00000    0.04536    0.02167 =
         0.03156   -0.00575   -0.00124   -0.00551
C56   1    0.822498    0.644140    0.061102    11.00000    0.04145    0.02934 =
         0.03295   -0.00864    0.00696    0.00579
C57   1    0.875947    0.705773    0.099570    11.00000    0.02767    0.03388 =
         0.03151    0.00112    0.00446    0.00319
C58   1    0.813992    0.763068    0.146050    11.00000    0.02613    0.01617 =
         0.03627   -0.00197   -0.00395   -0.00156
B1    3    0.614675    0.830355    0.212668    11.00000    0.01481    0.01542 =
         0.03165   -0.00422    0.00157   -0.00538
HKLF 4
 
REM  exp_2599_a.res in P-1
REM R1 =  0.0751 for    8945 Fo > 4sig(Fo)  and  0.0971 for all   11247 data
REM    739 parameters refined using     18 restraints
 
END  
     
WGHT      0.0311      8.4319 

REM Highest difference peak  2.371,  deepest hole -1.911,  1-sigma level  0.140
Q1    1   0.1260  0.3040  0.3349  11.00000  0.05    2.37
Q2    1   0.4032  0.7968  0.2763  11.00000  0.05    2.17
Q3    1   0.1172  0.3366  0.2339  11.00000  0.05    2.12
Q4    1   0.3052  0.1361  0.4450  11.00000  0.05    1.21
Q5    1   0.3207  0.3075  0.4988  11.00000  0.05    1.16
Q6    1   0.6028  1.0237  0.1455  11.00000  0.05    0.85
Q7    1   0.3963  0.3546  0.2816  11.00000  0.05    0.85
Q8    1   0.3451  0.5785  0.1545  11.00000  0.05    0.80
Q9    1   0.1537  0.2577  0.2805  11.00000  0.05    0.78
Q10   1   0.6017  0.5850  0.4466  11.00000  0.05    0.78

  REM The information below was added by Olex2.
  REM
  REM R1 = 0.0751 for 8945 Fo > 4sig(Fo) and 0.0971 for all 23022 data
  REM n/a parameters refined using n/a restraints
  REM Highest difference peak 2.37, deepest hole -1.91
  REM Mean Shift 0, Max Shift 0.000.

  REM +++ Tabular Listing of Refinement Information +++
  REM R1_all = 0.0971
  REM R1_gt = 0.0751
  REM wR_ref = 0.1418
  REM GOOF = 1.103
  REM Shift_max = 0.000
  REM Shift_mean = 0
  REM Reflections_all = 23022
  REM Reflections_gt = 8945
  REM Parameters = n/a
  REM Hole = -1.91
  REM Peak = 2.37
  REM Flack = n/a

  
;
_olex2_submission_special_instructions 'No special instructions were received'
_oxdiff_exptl_absorpt_empirical_details 
;
Empirical correction (ABSPACK) includes:
- Absorption correction using spherical harmonics
- Frame scaling
;
_oxdiff_exptl_absorpt_empirical_full_max 1.519
_oxdiff_exptl_absorpt_empirical_full_min 0.724
_exptl_crystal_recrystallization_method 'Re-crystallisation from solvent: DCM'
_chemical_properties_physical    
', Air-sensitive,Moisture-sensitive,Oxygen-sensitive'
